<?xml version="1.0" encoding="UTF-8"?>
<additional xmlns:xsi="http://www.w3.org/2001/XMLSchema-instance" xsi:noNamespaceSchemaLocation="http://sumo.dlr.de/xsd/additional_file.xsd">

    <poly id="pothole_0" type="pothole" color="0.3,0.3,0.3" fill="1" layer="50" shape="2575.01,6782.72 2574.46,6783.40 2573.78,6783.41 2572.97,6783.53 2572.66,6782.72 2573.10,6782.04 2573.78,6781.79 2574.47,6782.03"/>
    <variableSpeedSign id="pothole_vss_0" lanes="1122026493#0_0" pos="22.67">
        <step time="0" speed="6.95"/>
    </variableSpeedSign>

    <poly id="pothole_1" type="pothole" color="0.25,0.25,0.25" fill="1" layer="50" shape="2564.04,6765.61 2563.71,6766.90 2562.42,6768.07 2561.22,6766.82 2560.73,6765.61 2560.78,6763.96 2562.42,6763.51 2563.79,6764.24"/>
    <variableSpeedSign id="pothole_vss_1" lanes="1122026493#0_0" pos="20.78">
        <step time="0" speed="3.47"/>
    </variableSpeedSign>

    <poly id="pothole_2" type="pothole" color="0.3,0.3,0.3" fill="1" layer="50" shape="2578.57,6782.72 2578.36,6783.33 2577.75,6783.76 2577.26,6783.20 2576.95,6782.72 2577.03,6782.00 2577.75,6781.98 2578.44,6782.03"/>
    <variableSpeedSign id="pothole_vss_2" lanes="1122026493#0_0" pos="24.49">
        <step time="0" speed="6.95"/>
    </variableSpeedSign>

    <poly id="pothole_3" type="pothole" color="0.3,0.3,0.3" fill="1" layer="50" shape="2576.97,6759.46 2576.95,6759.94 2576.47,6760.33 2575.85,6760.08 2575.77,6759.46 2575.87,6758.86 2576.47,6758.67 2577.11,6758.82"/>
    <variableSpeedSign id="pothole_vss_3" lanes="1122026493#0_0" pos="6.41">
        <step time="0" speed="6.95"/>
    </variableSpeedSign>

    <poly id="pothole_4" type="pothole" color="0.25,0.25,0.25" fill="1" layer="50" shape="2564.42,6765.61 2564.35,6767.16 2562.80,6766.89 2561.38,6767.03 2561.15,6765.61 2561.33,6764.14 2562.80,6763.60 2563.93,6764.48"/>
    <variableSpeedSign id="pothole_vss_4" lanes="1122026493#0_0" pos="15.78">
        <step time="0" speed="3.47"/>
    </variableSpeedSign>

    <poly id="pothole_5" type="pothole" color="0.2,0.2,0.2" fill="1" layer="50" shape="2563.62,6765.61 2562.85,6768.14 2560.32,6768.73 2558.62,6767.31 2557.40,6765.61 2558.43,6763.72 2560.32,6761.99 2562.02,6763.91"/>
    <variableSpeedSign id="pothole_vss_5" lanes="1122026493#0_0" pos="15.53">
        <step time="0" speed="1.39"/>
    </variableSpeedSign>

    <poly id="pothole_6" type="pothole" color="0.3,0.3,0.3" fill="1" layer="50" shape="2574.90,6759.46 2574.56,6759.97 2574.05,6760.28 2573.62,6759.89 2573.28,6759.46 2573.64,6759.05 2574.05,6758.64 2574.59,6758.92"/>
    <variableSpeedSign id="pothole_vss_6" lanes="1122026493#0_0" pos="11.01">
        <step time="0" speed="6.95"/>
    </variableSpeedSign>

    <poly id="pothole_7" type="pothole" color="0.3,0.3,0.3" fill="1" layer="50" shape="2573.01,6782.72 2572.93,6783.25 2572.40,6783.50 2571.88,6783.25 2571.58,6782.72 2572.01,6782.33 2572.40,6782.01 2573.00,6782.12"/>
    <variableSpeedSign id="pothole_vss_7" lanes="1122026493#0_0" pos="26.62">
        <step time="0" speed="6.95"/>
    </variableSpeedSign>

    <poly id="pothole_8" type="pothole" color="0.25,0.25,0.25" fill="1" layer="50" shape="2574.59,6782.72 2574.18,6784.31 2572.59,6783.97 2571.13,6784.18 2571.07,6782.72 2571.60,6781.73 2572.59,6781.42 2574.00,6781.32"/>
    <variableSpeedSign id="pothole_vss_8" lanes="1122026493#0_0" pos="22.39">
        <step time="0" speed="3.47"/>
    </variableSpeedSign>

    <poly id="pothole_9" type="pothole" color="0.3,0.3,0.3" fill="1" layer="50" shape="2564.34,6765.61 2564.18,6766.29 2563.51,6766.65 2563.05,6766.07 2562.80,6765.61 2562.95,6765.05 2563.51,6764.82 2564.25,6764.87"/>
    <variableSpeedSign id="pothole_vss_9" lanes="1122026493#0_0" pos="15.55">
        <step time="0" speed="6.95"/>
    </variableSpeedSign>

    <poly id="pothole_10" type="pothole" color="0.3,0.3,0.3" fill="1" layer="50" shape="5010.92,3904.82 5010.73,3905.36 5010.19,3905.35 5009.70,3905.31 5009.66,3904.82 5009.83,3904.46 5010.19,3904.06 5010.49,3904.52"/>
    <variableSpeedSign id="pothole_vss_10" lanes="1190145018_0" pos="4.60">
        <step time="0" speed="6.95"/>
    </variableSpeedSign>

    <poly id="pothole_11" type="pothole" color="0.3,0.3,0.3" fill="1" layer="50" shape="5011.17,3904.82 5011.15,3905.38 5010.59,3905.58 5010.12,3905.29 5009.79,3904.82 5010.21,3904.44 5010.59,3904.30 5011.18,3904.23"/>
    <variableSpeedSign id="pothole_vss_11" lanes="1190145018_0" pos="7.69">
        <step time="0" speed="6.95"/>
    </variableSpeedSign>

    <poly id="pothole_12" type="pothole" color="0.2,0.2,0.2" fill="1" layer="50" shape="5036.54,3927.42 5035.38,3928.76 5034.05,3928.98 5032.83,3928.64 5032.48,3927.42 5032.71,3926.08 5034.05,3925.28 5035.17,3926.30"/>
    <variableSpeedSign id="pothole_vss_12" lanes="1190145018_0" pos="19.47">
        <step time="0" speed="1.39"/>
    </variableSpeedSign>

    <poly id="pothole_13" type="pothole" color="0.3,0.3,0.3" fill="1" layer="50" shape="5010.67,3904.82 5010.16,3905.37 5009.61,3905.70 5008.82,3905.61 5008.46,3904.82 5008.74,3903.95 5009.61,3903.62 5010.32,3904.11"/>
    <variableSpeedSign id="pothole_vss_13" lanes="1190145018_0" pos="8.00">
        <step time="0" speed="6.95"/>
    </variableSpeedSign>

    <poly id="pothole_14" type="pothole" color="0.3,0.3,0.3" fill="1" layer="50" shape="5034.04,3927.42 5033.83,3928.01 5033.24,3928.20 5032.70,3927.96 5032.51,3927.42 5032.84,3927.02 5033.24,3926.60 5033.82,3926.84"/>
    <variableSpeedSign id="pothole_vss_14" lanes="1190145018_0" pos="26.80">
        <step time="0" speed="6.95"/>
    </variableSpeedSign>

    <poly id="pothole_15" type="pothole" color="0.25,0.25,0.25" fill="1" layer="50" shape="5015.05,3904.82 5013.91,3905.98 5012.75,3906.36 5011.73,3905.85 5011.28,3904.82 5011.54,3903.61 5012.75,3902.96 5014.13,3903.44"/>
    <variableSpeedSign id="pothole_vss_15" lanes="1190145018_0" pos="3.58">
        <step time="0" speed="3.47"/>
    </variableSpeedSign>

    <poly id="pothole_16" type="pothole" color="0.25,0.25,0.25" fill="1" layer="50" shape="5011.73,3904.82 5011.00,3905.90 5009.92,3906.10 5008.81,3905.92 5007.83,3904.82 5008.69,3903.60 5009.92,3902.82 5010.92,3903.81"/>
    <variableSpeedSign id="pothole_vss_16" lanes="1190145018_0" pos="3.96">
        <step time="0" speed="3.47"/>
    </variableSpeedSign>

    <poly id="pothole_17" type="pothole" color="0.3,0.3,0.3" fill="1" layer="50" shape="5034.03,3927.42 5033.54,3927.80 5033.16,3928.04 5032.59,3927.99 5032.59,3927.42 5032.78,3927.04 5033.16,3926.62 5033.53,3927.05"/>
    <variableSpeedSign id="pothole_vss_17" lanes="1190145018_0" pos="19.63">
        <step time="0" speed="6.95"/>
    </variableSpeedSign>

    <poly id="pothole_18" type="pothole" color="0.2,0.2,0.2" fill="1" layer="50" shape="5037.61,3927.42 5036.40,3929.25 5034.58,3929.13 5032.51,3929.48 5031.89,3927.42 5032.97,3925.81 5034.58,3925.25 5036.02,3925.97"/>
    <variableSpeedSign id="pothole_vss_18" lanes="1190145018_0" pos="24.86">
        <step time="0" speed="1.39"/>
    </variableSpeedSign>

    <poly id="pothole_19" type="pothole" color="0.3,0.3,0.3" fill="1" layer="50" shape="5015.56,3904.82 5015.31,3905.68 5014.45,3905.60 5013.69,3905.59 5013.46,3904.82 5013.70,3904.07 5014.45,3903.70 5015.23,3904.04"/>
    <variableSpeedSign id="pothole_vss_19" lanes="1190145018_0" pos="12.87">
        <step time="0" speed="6.95"/>
    </variableSpeedSign>

    <poly id="pothole_20" type="pothole" color="0.3,0.3,0.3" fill="1" layer="50" shape="3782.95,6122.84 3782.84,6123.52 3782.16,6123.61 3781.40,6123.59 3781.51,6122.84 3781.45,6122.14 3782.16,6122.12 3782.61,6122.38"/>
    <variableSpeedSign id="pothole_vss_20" lanes="-1122230036#1_0" pos="50.61">
        <step time="0" speed="2.78"/>
    </variableSpeedSign>

    <poly id="pothole_21" type="pothole" color="0.3,0.3,0.3" fill="1" layer="50" shape="3785.34,6122.84 3785.23,6123.42 3784.65,6123.75 3784.09,6123.40 3783.69,6122.84 3783.92,6122.11 3784.65,6122.14 3785.27,6122.21"/>
    <variableSpeedSign id="pothole_vss_21" lanes="-1122230036#1_0" pos="42.17">
        <step time="0" speed="2.78"/>
    </variableSpeedSign>

    <poly id="pothole_22" type="pothole" color="0.3,0.3,0.3" fill="1" layer="50" shape="3723.10,6163.88 3722.99,6164.41 3722.46,6164.45 3721.97,6164.37 3721.71,6163.88 3721.86,6163.28 3722.46,6163.15 3722.86,6163.48"/>
    <variableSpeedSign id="pothole_vss_22" lanes="-1122230036#1_0" pos="19.87">
        <step time="0" speed="2.78"/>
    </variableSpeedSign>

    <poly id="pothole_23" type="pothole" color="0.3,0.3,0.3" fill="1" layer="50" shape="3720.29,6163.88 3720.29,6164.55 3719.62,6164.46 3718.99,6164.50 3718.68,6163.88 3718.93,6163.19 3719.62,6163.28 3720.14,6163.36"/>
    <variableSpeedSign id="pothole_vss_23" lanes="-1122230036#1_0" pos="23.70">
        <step time="0" speed="2.78"/>
    </variableSpeedSign>

    <poly id="pothole_24" type="pothole" color="0.3,0.3,0.3" fill="1" layer="50" shape="3717.68,6163.88 3717.80,6164.42 3717.27,6164.37 3716.88,6164.26 3716.77,6163.88 3716.77,6163.38 3717.27,6163.23 3717.66,6163.49"/>
    <variableSpeedSign id="pothole_vss_24" lanes="-1122230036#1_0" pos="12.82">
        <step time="0" speed="2.78"/>
    </variableSpeedSign>

    <poly id="pothole_25" type="pothole" color="0.3,0.3,0.3" fill="1" layer="50" shape="3787.82,6122.84 3787.64,6123.49 3787.00,6123.72 3786.52,6123.31 3786.30,6122.84 3786.54,6122.39 3787.00,6122.16 3787.79,6122.05"/>
    <variableSpeedSign id="pothole_vss_25" lanes="-1122230036#1_0" pos="50.85">
        <step time="0" speed="2.78"/>
    </variableSpeedSign>

    <poly id="pothole_26" type="pothole" color="0.3,0.3,0.3" fill="1" layer="50" shape="3785.71,6122.84 3785.40,6123.20 3785.04,6123.22 3784.78,6123.10 3784.42,6122.84 3784.65,6122.45 3785.04,6122.19 3785.33,6122.55"/>
    <variableSpeedSign id="pothole_vss_26" lanes="-1122230036#1_0" pos="54.62">
        <step time="0" speed="2.78"/>
    </variableSpeedSign>

    <poly id="pothole_27" type="pothole" color="0.3,0.3,0.3" fill="1" layer="50" shape="3721.39,6163.88 3721.03,6164.51 3720.40,6164.70 3719.58,6164.70 3719.52,6163.88 3719.76,6163.24 3720.40,6163.20 3721.11,6163.17"/>
    <variableSpeedSign id="pothole_vss_27" lanes="-1122230036#1_0" pos="33.09">
        <step time="0" speed="2.78"/>
    </variableSpeedSign>

    <poly id="pothole_28" type="pothole" color="0.3,0.3,0.3" fill="1" layer="50" shape="2303.09,5346.18 2302.86,5346.81 2302.23,5346.99 2301.71,5346.71 2301.17,5346.18 2301.75,5345.70 2302.23,5345.14 2302.82,5345.59"/>
    <variableSpeedSign id="pothole_vss_28" lanes="1075735441#0_0" pos="5.39">
        <step time="0" speed="1.39"/>
    </variableSpeedSign>

    <poly id="pothole_29" type="pothole" color="0.2,0.2,0.2" fill="1" layer="50" shape="2304.20,5346.18 2303.78,5347.46 2302.50,5348.95 2301.16,5347.52 2300.91,5346.18 2301.38,5345.05 2302.50,5343.91 2304.24,5344.44"/>
    <variableSpeedSign id="pothole_vss_29" lanes="1075735441#0_0" pos="5.60">
        <step time="0" speed="0.28"/>
    </variableSpeedSign>

    <poly id="pothole_30" type="pothole" color="0.2,0.2,0.2" fill="1" layer="50" shape="2305.52,5346.18 2304.80,5348.67 2302.31,5348.70 2300.01,5348.48 2299.71,5346.18 2300.45,5344.32 2302.31,5343.35 2304.53,5343.96"/>
    <variableSpeedSign id="pothole_vss_30" lanes="1075735441#0_0" pos="4.40">
        <step time="0" speed="0.28"/>
    </variableSpeedSign>

    <poly id="pothole_31" type="pothole" color="0.3,0.3,0.3" fill="1" layer="50" shape="2312.73,5345.87 2312.41,5346.35 2311.92,5346.48 2311.38,5346.41 2311.31,5345.87 2311.28,5345.22 2311.92,5345.35 2312.44,5345.35"/>
    <variableSpeedSign id="pothole_vss_31" lanes="1075735441#0_0" pos="8.70">
        <step time="0" speed="1.39"/>
    </variableSpeedSign>

    <poly id="pothole_32" type="pothole" color="0.3,0.3,0.3" fill="1" layer="50" shape="2299.89,5346.18 2299.94,5346.61 2299.50,5346.68 2299.22,5346.46 2299.14,5346.18 2299.17,5345.85 2299.50,5345.53 2299.84,5345.84"/>
    <variableSpeedSign id="pothole_vss_32" lanes="1075735441#0_0" pos="2.92">
        <step time="0" speed="1.39"/>
    </variableSpeedSign>

    <poly id="pothole_33" type="pothole" color="0.3,0.3,0.3" fill="1" layer="50" shape="2304.73,5346.18 2304.52,5346.81 2303.89,5346.91 2303.25,5346.82 2303.11,5346.18 2303.18,5345.47 2303.89,5345.59 2304.60,5345.47"/>
    <variableSpeedSign id="pothole_vss_33" lanes="1075735441#0_0" pos="5.44">
        <step time="0" speed="1.39"/>
    </variableSpeedSign>

    <poly id="pothole_34" type="pothole" color="0.25,0.25,0.25" fill="1" layer="50" shape="2305.74,5346.18 2305.78,5347.41 2304.56,5347.43 2303.42,5347.32 2302.83,5346.18 2303.23,5344.85 2304.56,5345.05 2305.71,5345.03"/>
    <variableSpeedSign id="pothole_vss_34" lanes="1075735441#0_0" pos="2.37">
        <step time="0" speed="0.69"/>
    </variableSpeedSign>

    <poly id="pothole_35" type="pothole" color="0.3,0.3,0.3" fill="1" layer="50" shape="2311.62,5345.87 2311.35,5346.36 2310.85,5346.72 2310.18,5346.55 2310.02,5345.87 2310.29,5345.30 2310.85,5345.09 2311.52,5345.21"/>
    <variableSpeedSign id="pothole_vss_35" lanes="1075735441#0_0" pos="7.44">
        <step time="0" speed="1.39"/>
    </variableSpeedSign>

    <poly id="pothole_36" type="pothole" color="0.3,0.3,0.3" fill="1" layer="50" shape="2304.80,5346.18 2304.67,5346.55 2304.30,5346.98 2303.84,5346.64 2303.55,5346.18 2303.76,5345.63 2304.30,5345.36 2304.70,5345.78"/>
    <variableSpeedSign id="pothole_vss_36" lanes="1075735441#0_0" pos="5.07">
        <step time="0" speed="1.39"/>
    </variableSpeedSign>

    <poly id="pothole_37" type="pothole" color="0.3,0.3,0.3" fill="1" layer="50" shape="2301.85,5346.18 2301.67,5346.78 2301.07,5347.34 2300.28,5346.97 2299.87,5346.18 2300.40,5345.51 2301.07,5345.42 2301.78,5345.47"/>
    <variableSpeedSign id="pothole_vss_37" lanes="1075735441#0_0" pos="1.85">
        <step time="0" speed="1.39"/>
    </variableSpeedSign>

    <poly id="pothole_38" type="pothole" color="0.25,0.25,0.25" fill="1" layer="50" shape="2303.60,5346.18 2303.15,5347.34 2301.99,5347.81 2301.10,5347.07 2301.08,5346.18 2301.07,5345.25 2301.99,5344.57 2303.07,5345.10"/>
    <variableSpeedSign id="pothole_vss_38" lanes="1075735441#0_0" pos="2.60">
        <step time="0" speed="0.69"/>
    </variableSpeedSign>

    <poly id="pothole_39" type="pothole" color="0.3,0.3,0.3" fill="1" layer="50" shape="2312.45,5345.87 2312.10,5346.15 2311.82,5346.53 2311.41,5346.28 2311.19,5345.87 2311.54,5345.59 2311.82,5345.21 2312.16,5345.53"/>
    <variableSpeedSign id="pothole_vss_39" lanes="1075735441#0_0" pos="8.63">
        <step time="0" speed="1.39"/>
    </variableSpeedSign>

    <poly id="pothole_40" type="pothole" color="0.3,0.3,0.3" fill="1" layer="50" shape="2756.07,5845.95 2755.94,5846.37 2755.53,5846.31 2755.18,5846.29 2754.89,5845.95 2755.14,5845.56 2755.53,5845.52 2755.88,5845.60"/>
    <variableSpeedSign id="pothole_vss_40" lanes="-1122265430_0" pos="21.40">
        <step time="0" speed="2.78"/>
    </variableSpeedSign>

    <poly id="pothole_41" type="pothole" color="0.3,0.3,0.3" fill="1" layer="50" shape="2753.48,5862.49 2753.38,5863.16 2752.71,5863.14 2752.27,5862.92 2751.76,5862.49 2752.17,5861.96 2752.71,5861.69 2753.28,5861.92"/>
    <variableSpeedSign id="pothole_vss_41" lanes="-1122265430_0" pos="28.89">
        <step time="0" speed="2.78"/>
    </variableSpeedSign>

    <poly id="pothole_42" type="pothole" color="0.3,0.3,0.3" fill="1" layer="50" shape="2756.13,5845.95 2755.85,5846.57 2755.23,5846.74 2754.47,5846.71 2754.12,5845.95 2754.72,5845.44 2755.23,5845.30 2755.70,5845.48"/>
    <variableSpeedSign id="pothole_vss_42" lanes="-1122265430_0" pos="16.82">
        <step time="0" speed="2.78"/>
    </variableSpeedSign>

    <poly id="pothole_43" type="pothole" color="0.25,0.25,0.25" fill="1" layer="50" shape="2753.31,5862.49 2753.24,5863.72 2752.00,5863.79 2751.07,5863.42 2750.67,5862.49 2750.98,5861.47 2752.00,5861.14 2752.74,5861.76"/>
    <variableSpeedSign id="pothole_vss_43" lanes="-1122265430_0" pos="33.12">
        <step time="0" speed="1.39"/>
    </variableSpeedSign>

    <poly id="pothole_44" type="pothole" color="0.3,0.3,0.3" fill="1" layer="50" shape="2752.50,5862.49 2752.22,5862.99 2751.71,5863.28 2751.12,5863.09 2750.76,5862.49 2751.25,5862.02 2751.71,5861.86 2752.22,5861.99"/>
    <variableSpeedSign id="pothole_vss_44" lanes="-1122265430_0" pos="29.79">
        <step time="0" speed="2.78"/>
    </variableSpeedSign>

    <poly id="pothole_45" type="pothole" color="0.3,0.3,0.3" fill="1" layer="50" shape="2755.73,5862.49 2755.81,5863.13 2755.17,5863.28 2754.65,5863.00 2754.64,5862.49 2754.62,5861.94 2755.17,5861.67 2755.80,5861.85"/>
    <variableSpeedSign id="pothole_vss_45" lanes="-1122265430_0" pos="32.04">
        <step time="0" speed="2.78"/>
    </variableSpeedSign>

    <poly id="pothole_46" type="pothole" color="0.3,0.3,0.3" fill="1" layer="50" shape="2749.04,5823.78 2748.67,5824.24 2748.21,5824.59 2747.55,5824.44 2747.08,5823.78 2747.59,5823.16 2748.21,5823.09 2748.74,5823.25"/>
    <variableSpeedSign id="pothole_vss_46" lanes="-1122265430_0" pos="4.47">
        <step time="0" speed="2.78"/>
    </variableSpeedSign>

    <poly id="pothole_47" type="pothole" color="0.3,0.3,0.3" fill="1" layer="50" shape="2754.45,5845.95 2754.27,5846.56 2753.66,5846.88 2753.13,5846.48 2752.69,5845.95 2753.07,5845.36 2753.66,5845.25 2754.19,5845.42"/>
    <variableSpeedSign id="pothole_vss_47" lanes="-1122265430_0" pos="18.84">
        <step time="0" speed="2.78"/>
    </variableSpeedSign>

    <poly id="pothole_48" type="pothole" color="0.3,0.3,0.3" fill="1" layer="50" shape="2752.62,5862.49 2752.54,5863.30 2751.74,5863.46 2750.97,5863.26 2750.53,5862.49 2750.86,5861.61 2751.74,5861.41 2752.47,5861.76"/>
    <variableSpeedSign id="pothole_vss_48" lanes="-1122265430_0" pos="33.46">
        <step time="0" speed="2.78"/>
    </variableSpeedSign>

    <poly id="pothole_49" type="pothole" color="0.2,0.2,0.2" fill="1" layer="50" shape="5124.70,6471.36 5123.83,6473.51 5121.68,6473.65 5119.00,6474.05 5118.47,6471.36 5119.73,6469.41 5121.68,6468.70 5123.62,6469.42"/>
    <variableSpeedSign id="pothole_vss_49" lanes="1121189639#2_0" pos="6.84">
        <step time="0" speed="0.56"/>
    </variableSpeedSign>

    <poly id="pothole_50" type="pothole" color="0.3,0.3,0.3" fill="1" layer="50" shape="5139.04,6477.99 5138.92,6478.85 5138.06,6478.72 5137.56,6478.49 5137.18,6477.99 5137.40,6477.33 5138.06,6476.82 5138.72,6477.33"/>
    <variableSpeedSign id="pothole_vss_50" lanes="1121189639#2_0" pos="11.78">
        <step time="0" speed="2.78"/>
    </variableSpeedSign>

    <poly id="pothole_51" type="pothole" color="0.3,0.3,0.3" fill="1" layer="50" shape="5139.02,6477.99 5138.55,6478.45 5138.09,6478.69 5137.62,6478.47 5137.12,6477.99 5137.68,6477.58 5138.09,6477.05 5138.58,6477.50"/>
    <variableSpeedSign id="pothole_vss_51" lanes="1121189639#2_0" pos="13.65">
        <step time="0" speed="2.78"/>
    </variableSpeedSign>

    <poly id="pothole_52" type="pothole" color="0.3,0.3,0.3" fill="1" layer="50" shape="5123.92,6471.36 5123.58,6471.93 5123.00,6472.32 5122.40,6471.96 5122.08,6471.36 5122.37,6470.73 5123.00,6470.66 5123.66,6470.70"/>
    <variableSpeedSign id="pothole_vss_52" lanes="1121189639#2_0" pos="4.07">
        <step time="0" speed="2.78"/>
    </variableSpeedSign>

    <poly id="pothole_53" type="pothole" color="0.3,0.3,0.3" fill="1" layer="50" shape="5134.33,6477.99 5134.11,6478.68 5133.42,6479.09 5132.80,6478.61 5132.59,6477.99 5132.76,6477.33 5133.42,6477.08 5133.85,6477.56"/>
    <variableSpeedSign id="pothole_vss_53" lanes="1121189639#2_0" pos="10.49">
        <step time="0" speed="2.78"/>
    </variableSpeedSign>

    <poly id="pothole_54" type="pothole" color="0.25,0.25,0.25" fill="1" layer="50" shape="5120.94,6471.36 5120.05,6472.23 5119.18,6472.65 5117.96,6472.59 5117.67,6471.36 5118.46,6470.64 5119.18,6470.26 5120.32,6470.22"/>
    <variableSpeedSign id="pothole_vss_54" lanes="1121189639#2_0" pos="3.94">
        <step time="0" speed="1.39"/>
    </variableSpeedSign>

    <poly id="pothole_55" type="pothole" color="0.3,0.3,0.3" fill="1" layer="50" shape="5137.43,6477.99 5137.44,6478.47 5136.96,6478.48 5136.52,6478.43 5136.15,6477.99 5136.62,6477.65 5136.96,6477.28 5137.35,6477.60"/>
    <variableSpeedSign id="pothole_vss_55" lanes="1121189639#2_0" pos="10.01">
        <step time="0" speed="2.78"/>
    </variableSpeedSign>

    <poly id="pothole_56" type="pothole" color="0.25,0.25,0.25" fill="1" layer="50" shape="5122.09,6471.36 5121.38,6472.51 5120.23,6473.08 5119.12,6472.47 5118.83,6471.36 5119.13,6470.26 5120.23,6470.27 5121.22,6470.37"/>
    <variableSpeedSign id="pothole_vss_56" lanes="1121189639#2_0" pos="4.51">
        <step time="0" speed="1.39"/>
    </variableSpeedSign>

    <poly id="pothole_57" type="pothole" color="0.25,0.25,0.25" fill="1" layer="50" shape="5123.46,6471.36 5123.19,6472.05 5122.50,6472.54 5121.77,6472.10 5120.94,6471.36 5121.46,6470.32 5122.50,6469.98 5123.23,6470.63"/>
    <variableSpeedSign id="pothole_vss_57" lanes="1121189639#2_0" pos="7.29">
        <step time="0" speed="1.39"/>
    </variableSpeedSign>

    <poly id="pothole_58" type="pothole" color="0.3,0.3,0.3" fill="1" layer="50" shape="5122.89,6471.36 5122.41,6472.09 5121.68,6472.34 5120.83,6472.21 5121.00,6471.36 5120.89,6470.57 5121.68,6470.21 5122.42,6470.62"/>
    <variableSpeedSign id="pothole_vss_58" lanes="1121189639#2_0" pos="2.15">
        <step time="0" speed="2.78"/>
    </variableSpeedSign>

    <poly id="pothole_59" type="pothole" color="0.25,0.25,0.25" fill="1" layer="50" shape="5135.68,6477.99 5134.83,6479.03 5133.79,6479.92 5132.78,6479.00 5132.41,6477.99 5132.77,6476.97 5133.79,6476.01 5135.07,6476.71"/>
    <variableSpeedSign id="pothole_vss_59" lanes="1121189639#2_0" pos="8.63">
        <step time="0" speed="1.39"/>
    </variableSpeedSign>

    <poly id="pothole_60" type="pothole" color="0.25,0.25,0.25" fill="1" layer="50" shape="5125.70,6471.36 5125.16,6472.12 5124.40,6473.28 5123.15,6472.62 5122.73,6471.36 5123.34,6470.30 5124.40,6470.27 5125.30,6470.46"/>
    <variableSpeedSign id="pothole_vss_60" lanes="1121189639#2_0" pos="5.04">
        <step time="0" speed="1.39"/>
    </variableSpeedSign>

    <poly id="pothole_61" type="pothole" color="0.3,0.3,0.3" fill="1" layer="50" shape="5124.49,6471.36 5124.19,6471.71 5123.84,6471.99 5123.38,6471.82 5123.35,6471.36 5123.52,6471.04 5123.84,6470.65 5124.15,6471.05"/>
    <variableSpeedSign id="pothole_vss_61" lanes="1121189639#2_0" pos="2.35">
        <step time="0" speed="2.78"/>
    </variableSpeedSign>

    <poly id="pothole_62" type="pothole" color="0.3,0.3,0.3" fill="1" layer="50" shape="5136.85,6477.99 5136.63,6478.34 5136.28,6478.55 5135.83,6478.44 5135.60,6477.99 5135.99,6477.70 5136.28,6477.38 5136.70,6477.57"/>
    <variableSpeedSign id="pothole_vss_62" lanes="1121189639#2_0" pos="9.71">
        <step time="0" speed="2.78"/>
    </variableSpeedSign>

    <poly id="pothole_63" type="pothole" color="0.3,0.3,0.3" fill="1" layer="50" shape="5120.79,6471.36 5120.49,6471.86 5120.00,6472.10 5119.57,6471.79 5119.52,6471.36 5119.51,6470.87 5120.00,6470.70 5120.49,6470.86"/>
    <variableSpeedSign id="pothole_vss_63" lanes="1121189639#2_0" pos="5.91">
        <step time="0" speed="2.78"/>
    </variableSpeedSign>

    <poly id="pothole_64" type="pothole" color="0.2,0.2,0.2" fill="1" layer="50" shape="4670.90,5700.32 4669.33,5702.30 4667.35,5703.55 4665.59,5702.08 4664.57,5700.32 4665.56,5698.53 4667.35,5696.89 4668.98,5698.69"/>
    <variableSpeedSign id="pothole_vss_64" lanes="1121154752#0_0" pos="2.75">
        <step time="0" speed="0.56"/>
    </variableSpeedSign>

    <poly id="pothole_65" type="pothole" color="0.2,0.2,0.2" fill="1" layer="50" shape="4665.06,5695.14 4663.84,5696.36 4662.62,5697.04 4660.84,5696.93 4660.41,5695.14 4660.93,5693.45 4662.62,5692.42 4663.95,5693.81"/>
    <variableSpeedSign id="pothole_vss_65" lanes="1121154752#0_0" pos="5.98">
        <step time="0" speed="0.56"/>
    </variableSpeedSign>

    <poly id="pothole_66" type="pothole" color="0.3,0.3,0.3" fill="1" layer="50" shape="4664.98,5695.14 4664.81,5695.97 4663.98,5695.83 4663.36,5695.76 4663.29,5695.14 4663.24,5694.39 4663.98,5694.01 4664.64,5694.49"/>
    <variableSpeedSign id="pothole_vss_66" lanes="1121154752#0_0" pos="8.32">
        <step time="0" speed="2.78"/>
    </variableSpeedSign>

    <poly id="pothole_67" type="pothole" color="0.25,0.25,0.25" fill="1" layer="50" shape="4665.98,5695.14 4665.79,5696.04 4664.89,5696.51 4664.01,5696.02 4663.41,5695.14 4663.78,5694.03 4664.89,5693.51 4666.05,5693.98"/>
    <variableSpeedSign id="pothole_vss_67" lanes="1121154752#0_0" pos="4.91">
        <step time="0" speed="1.39"/>
    </variableSpeedSign>

    <poly id="pothole_68" type="pothole" color="0.3,0.3,0.3" fill="1" layer="50" shape="4665.36,5695.14 4664.77,5695.72 4664.18,5695.93 4663.72,5695.61 4663.27,5695.14 4663.61,5694.57 4664.18,5694.02 4665.02,5694.30"/>
    <variableSpeedSign id="pothole_vss_68" lanes="1121154752#0_0" pos="5.14">
        <step time="0" speed="2.78"/>
    </variableSpeedSign>

    <poly id="pothole_69" type="pothole" color="0.25,0.25,0.25" fill="1" layer="50" shape="4660.13,5688.76 4659.92,5689.79 4658.89,5690.33 4657.86,5689.79 4656.97,5688.76 4657.81,5687.68 4658.89,5687.06 4659.89,5687.76"/>
    <variableSpeedSign id="pothole_vss_69" lanes="1121154752#0_0" pos="12.51">
        <step time="0" speed="1.39"/>
    </variableSpeedSign>

    <poly id="pothole_70" type="pothole" color="0.2,0.2,0.2" fill="1" layer="50" shape="4671.36,5700.32 4670.51,5702.73 4668.10,5703.63 4666.15,5702.27 4665.18,5700.32 4665.79,5698.01 4668.10,5697.89 4670.20,5698.22"/>
    <variableSpeedSign id="pothole_vss_70" lanes="1121154752#0_0" pos="3.76">
        <step time="0" speed="0.56"/>
    </variableSpeedSign>

    <poly id="pothole_71" type="pothole" color="0.3,0.3,0.3" fill="1" layer="50" shape="4667.57,5695.14 4666.97,5695.64 4666.47,5695.95 4665.95,5695.66 4665.85,5695.14 4666.03,5694.70 4666.47,5694.04 4666.91,5694.70"/>
    <variableSpeedSign id="pothole_vss_71" lanes="1121154752#0_0" pos="5.72">
        <step time="0" speed="2.78"/>
    </variableSpeedSign>

    <poly id="pothole_72" type="pothole" color="0.3,0.3,0.3" fill="1" layer="50" shape="4665.47,5695.14 4665.11,5695.53 4664.73,5695.82 4664.30,5695.56 4664.07,5695.14 4664.40,5694.81 4664.73,5694.57 4665.10,5694.77"/>
    <variableSpeedSign id="pothole_vss_72" lanes="1121154752#0_0" pos="9.08">
        <step time="0" speed="2.78"/>
    </variableSpeedSign>

    <poly id="pothole_73" type="pothole" color="0.3,0.3,0.3" fill="1" layer="50" shape="4667.01,5700.32 4667.05,5701.05 4666.32,5701.18 4665.62,5701.02 4665.44,5700.32 4665.60,5699.60 4666.32,5699.64 4666.86,5699.78"/>
    <variableSpeedSign id="pothole_vss_73" lanes="1121154752#0_0" pos="2.31">
        <step time="0" speed="2.78"/>
    </variableSpeedSign>

    <poly id="pothole_74" type="pothole" color="0.3,0.3,0.3" fill="1" layer="50" shape="4662.46,5695.14 4662.43,5695.71 4661.86,5695.98 4661.50,5695.51 4661.29,5695.14 4661.33,5694.61 4661.86,5694.30 4662.50,5694.50"/>
    <variableSpeedSign id="pothole_vss_74" lanes="1121154752#0_0" pos="5.85">
        <step time="0" speed="2.78"/>
    </variableSpeedSign>

    <poly id="pothole_75" type="pothole" color="0.3,0.3,0.3" fill="1" layer="50" shape="4660.12,5688.76 4659.70,5689.40 4659.06,5689.52 4658.50,5689.32 4658.13,5688.76 4658.34,5688.04 4659.06,5687.65 4659.72,5688.10"/>
    <variableSpeedSign id="pothole_vss_75" lanes="1121154752#0_0" pos="11.69">
        <step time="0" speed="2.78"/>
    </variableSpeedSign>

    <poly id="pothole_76" type="pothole" color="0.25,0.25,0.25" fill="1" layer="50" shape="4666.20,5695.14 4665.69,5696.21 4664.62,5696.39 4663.86,5695.90 4663.03,5695.14 4663.85,5694.37 4664.62,5694.11 4665.67,5694.10"/>
    <variableSpeedSign id="pothole_vss_76" lanes="1121154752#0_0" pos="5.22">
        <step time="0" speed="1.39"/>
    </variableSpeedSign>

    <poly id="pothole_77" type="pothole" color="0.2,0.2,0.2" fill="1" layer="50" shape="4668.86,5695.14 4667.64,5697.06 4665.72,5698.93 4663.13,5697.73 4661.97,5695.14 4663.08,5692.50 4665.72,5692.17 4667.35,5693.51"/>
    <variableSpeedSign id="pothole_vss_77" lanes="1121154752#0_0" pos="5.44">
        <step time="0" speed="0.56"/>
    </variableSpeedSign>

    <poly id="pothole_78" type="pothole" color="0.25,0.25,0.25" fill="1" layer="50" shape="4669.40,5700.32 4669.26,5701.54 4668.05,5701.51 4666.90,5701.46 4666.49,5700.32 4666.89,5699.16 4668.05,5698.48 4669.18,5699.19"/>
    <variableSpeedSign id="pothole_vss_78" lanes="1121154752#0_0" pos="3.96">
        <step time="0" speed="1.39"/>
    </variableSpeedSign>

    <poly id="pothole_79" type="pothole" color="0.3,0.3,0.3" fill="1" layer="50" shape="3995.36,6250.18 3995.21,6250.55 3994.84,6250.65 3994.42,6250.59 3994.14,6250.18 3994.36,6249.71 3994.84,6249.73 3995.31,6249.70"/>
    <variableSpeedSign id="pothole_vss_79" lanes="-1122226819#1_0" pos="33.87">
        <step time="0" speed="2.78"/>
    </variableSpeedSign>

    <poly id="pothole_80" type="pothole" color="0.3,0.3,0.3" fill="1" layer="50" shape="4038.53,6249.72 4038.51,6250.35 4037.88,6250.69 4037.16,6250.45 4036.88,6249.72 4037.30,6249.14 4037.88,6249.13 4038.51,6249.09"/>
    <variableSpeedSign id="pothole_vss_80" lanes="-1122226819#1_0" pos="17.71">
        <step time="0" speed="2.78"/>
    </variableSpeedSign>

    <poly id="pothole_81" type="pothole" color="0.3,0.3,0.3" fill="1" layer="50" shape="3993.92,6250.18 3993.84,6250.62 3993.40,6250.88 3992.76,6250.82 3992.88,6250.18 3992.84,6249.61 3993.40,6249.32 3994.03,6249.55"/>
    <variableSpeedSign id="pothole_vss_81" lanes="-1122226819#1_0" pos="39.52">
        <step time="0" speed="2.78"/>
    </variableSpeedSign>
