<?xml version="1.0" encoding="UTF-8"?>
<routes xmlns:xsi="http://www.w3.org/2001/XMLSchema-instance" xsi:noNamespaceSchemaLocation="http://sumo.dlr.de/xsd/routes_file.xsd">

    <!-- Auto-rickshaw: overtakes, medium distance -->
    <vType id="auto" accel="1.8" decel="4.5" sigma="0.7" length="3.0" minGap="1.2" 
           maxSpeed="13.89" color="1,1,0" vClass="passenger" guiShape="delivery" 
           speedFactor="0.9" speedDev="0.2" lcStrategic="1.5" lcCooperative="0.5"
           lcSpeedGain="2.0" lcKeepRight="0.3"/>
    
    <!-- Motorbike: erratic, lane changes, short distance -->
    <vType id="motorbike" accel="3.5" decel="6.0" sigma="0.6" length="2.0" minGap="0.5" 
           maxSpeed="27.78" color="1,0,0" vClass="passenger" guiShape="motorcycle"
           speedFactor="1.2" speedDev="0.3" lcStrategic="2.0" lcCooperative="0.3"
           lcSpeedGain="3.0" lcKeepRight="0.1"/>
    
    <!-- Car: average, long distance -->
    <vType id="car" accel="2.6" decel="4.5" sigma="0.5" length="5.0" minGap="2.5" 
           maxSpeed="33.33" color="0,0.9,0.9" vClass="passenger" guiShape="passenger"
           speedFactor="1.0" speedDev="0.15" lcStrategic="1.0" lcCooperative="1.0"
           lcSpeedGain="1.0" lcKeepRight="0.5"/>
    
    <!-- Bus: slow, long distance (using passenger vClass for routing) -->
    <vType id="bus" accel="1.2" decel="3.5" sigma="0.3" length="12.0" minGap="3.5" 
           maxSpeed="22.22" color="0,0,1" vClass="passenger" guiShape="bus"
           speedFactor="0.85" speedDev="0.1" lcStrategic="0.5" lcCooperative="1.5"
           lcSpeedGain="0.5" lcKeepRight="0.8"/>
    
    <flow id="auto_flow_0" type="auto" begin="0.0" end="7200" period="180.0" from="150409383#1" to="712992071#12" departLane="best" departSpeed="max"/>
    <flow id="auto_flow_1" type="auto" begin="36.0" end="7200" period="180.0" from="1053851211#5" to="1053851218" departLane="best" departSpeed="max"/>
    <flow id="auto_flow_2" type="auto" begin="72.0" end="7200" period="180.0" from="-998790358#12" to="998790358#18" departLane="best" departSpeed="max"/>
    <flow id="auto_flow_3" type="auto" begin="108.0" end="7200" period="180.0" from="998790353#4" to="24577102" departLane="best" departSpeed="max"/>
    <flow id="auto_flow_4" type="auto" begin="144.0" end="7200" period="180.0" from="712992071#6" to="24563436#3" departLane="best" departSpeed="max"/>
    <flow id="motorbike_flow_5" type="motorbike" begin="0.0" end="7200" period="120.0" from="581989173#5" to="709276138#1" departLane="best" departSpeed="max"/>
    <flow id="motorbike_flow_6" type="motorbike" begin="24.0" end="7200" period="120.0" from="37222903#0" to="708488753#2" departLane="best" departSpeed="max"/>
    <flow id="motorbike_flow_7" type="motorbike" begin="48.0" end="7200" period="120.0" from="998790353#1" to="998197439#0-AddedOnRampEdge" departLane="best" departSpeed="max"/>
    <flow id="motorbike_flow_8" type="motorbike" begin="72.0" end="7200" period="120.0" from="760536610#1" to="-1053851211#2" departLane="best" departSpeed="max"/>
    <flow id="motorbike_flow_9" type="motorbike" begin="96.0" end="7200" period="120.0" from="596373338#13" to="24563436#2" departLane="best" departSpeed="max"/>
    <flow id="car_flow_10" type="car" begin="0.0" end="7200" period="144.0" from="447602096#2" to="293530132#5" departLane="best" departSpeed="max"/>
    <flow id="car_flow_11" type="car" begin="28.8" end="7200" period="144.0" from="24577095#0" to="24584377#1" departLane="best" departSpeed="max"/>
    <flow id="car_flow_12" type="car" begin="57.6" end="7200" period="144.0" from="23134746#1-AddedOffRampEdge" to="563791811#2" departLane="best" departSpeed="max"/>
    <flow id="car_flow_13" type="car" begin="86.4" end="7200" period="144.0" from="447141151#3" to="998790353#0" departLane="best" departSpeed="max"/>
    <flow id="car_flow_14" type="car" begin="115.2" end="7200" period="144.0" from="24577384#1" to="37222902#9" departLane="best" departSpeed="max"/>
    <flow id="bus_flow_15" type="bus" begin="0.0" end="7200" period="240.0" from="24583487#3" to="700305760#0" departLane="best" departSpeed="max"/>
    <flow id="bus_flow_16" type="bus" begin="48.0" end="7200" period="240.0" from="44831985#5" to="1187268470#1" departLane="best" departSpeed="max"/>
    <flow id="bus_flow_17" type="bus" begin="96.0" end="7200" period="240.0" from="596373338#0" to="1182424430#2" departLane="best" departSpeed="max"/>
    <flow id="bus_flow_18" type="bus" begin="144.0" end="7200" period="240.0" from="24583768#0" to="24584375#0" departLane="best" departSpeed="max"/>
    <flow id="bus_flow_19" type="bus" begin="192.0" end="7200" period="240.0" from="1329173707#1" to="997761552#1" departLane="best" departSpeed="max"/>
</routes>
