<?xml version="1.0" encoding="UTF-8"?>

<!-- generated on 2025-09-30 09:28:23 by Eclipse SUMO duarouter Version 1.24.0
<duarouterConfiguration xmlns:xsi="http://www.w3.org/2001/XMLSchema-instance" xsi:noNamespaceSchemaLocation="http://sumo.dlr.de/xsd/duarouterConfiguration.xsd">

    <input>
        <net-file value="mymap.net.xml"/>
        <route-files value="mymap.trips.xml"/>
    </input>

    <output>
        <output-file value="mymap.rou.xml"/>
    </output>

</duarouterConfiguration>
-->

<routes xmlns:xsi="http://www.w3.org/2001/XMLSchema-instance" xsi:noNamespaceSchemaLocation="http://sumo.dlr.de/xsd/routes_file.xsd">
    <vehicle id="0" depart="0.00">
        <route edges="28121614#0 77355810#1 77355810#2 77355810#3 77355795 1187268480#1-AddedOnRampEdge 1187268480#1 1187268480#2 1187268488#1 1077595194 -24577367#8 -24577367#7 -24577367#6 -24577367#4 -24577367#2 -24577367#1 -24577367#0 1077595195#1 732001894 581989172#0 581989172#1 604050032 24577379#0 24577379#1 24577390#0 24577390#1 24577390#2 24577390#3 24577390#4 24577390#6 24577390#8 24577390#9 24577390#10 563679834#5 758753892 758753875 758753890#1 758753890#2 758753894 24577393#0 24577393#1 758753896 24577391#0 24577391#1 24577391#2 1053851216 -1053851218 24577401 570427351 683766457 24577396 24577405 782686028#0 782686028#1 782686028#2 782686029 27422253#0 27422253#1 27422253#2 782774058 782774057#0 782774057#1 782774057#2 782774057#3 782774057#4 782774057#5 782774057#6 782774057#7 80950040#0 -1074157512#1"/>
    </vehicle>
    <vehicle id="1" depart="2.00">
        <route edges="-717531848#4 -699609064 235103526#2 139069980#5 139069980#6 139069980#8 562202340#6 562202340#6-AddedOffRampEdge 562202340#7 1296316293#1 973071398 995113416#0 995113416#2 995113416#3 995113416#4 995113416#6 995113416#7 712992080#0 712992080#1 712992080#2 712992080#3 712992080#4 712992080#5 712992080#6 712992080#7 712992080#8 995113419 570859666#0 570859666#1 570859666#2 446922583#0 446922583#1 722082942 447141131#0 447141131#1 447141131#2 446922589 24583333#0 24583333#1 74851424#0 -1277942000#8 -1277942000#7 -1277942000#5 -1277942000#4 -1277942000#3 -561672577#1"/>
    </vehicle>
    <vehicle id="2" depart="4.00">
        <route edges="446922582#9 446922582#10 446922582#11 446922582#12 581989173#0 581989173#1 581989173#2 581989173#3 581989173#4 581989173#5 581989173#6 680551206#0 680551206#2 680551212#0 680551212#1 680551212#2 680551212#3 680551212#4 296963059#0 296963059#1-AddedOnRampEdge 296963059#1 296963059#2 296963059#3 -112102244#5 370902454#1"/>
    </vehicle>
    <vehicle id="3" depart="6.00">
        <route edges="717512501 -717512501 -717512502#1 -717512502#0 656933877#13 656933877#14 656933877#15 656933877#16 656933877#17 656933877#18 656933877#19 24563433 656933872#0 656933872#1 582461171#0 582461171#2 581989173#0 562202340#0 562202340#1 562202340#2 562202340#3 562202340#4 562202340#4-AddedOffRampEdge 562202340#5 -139069980#8 -139069980#6 -139069980#5"/>
    </vehicle>
    <vehicle id="4" depart="8.00">
        <route edges="1242128093 116046166#0 116046166#1 116046166#2 24577121#1 24577121#2 24577121#3 24577121#4 24577121#5 116046169#0 116046169#1 116046169#2 116046169#3 116046169#4 23134098#7 23134098#8 656933873 656933872#0 656933872#1 582461171#0 582461171#2 581989173#0 581989173#1 581989173#2 581989173#3 581989173#4 581989173#5 581989173#6 44831985#0 44831985#1 44831985#2 44831985#3 44831985#4 548825886 1187268475#2 715743299#0 -717046639#4 -717046639#3 -717046639#2 -717046639#1 -1074715754#1"/>
    </vehicle>
    <vehicle id="5" depart="10.00">
        <route edges="-423559880#1 -423559880#0 139069980#8 562202340#6 562202340#6-AddedOffRampEdge 562202340#7 1296316293#1 973071398 995113416#0 995113416#2 995113416#3 995113416#4 995113416#6 995113416#7 712992080#0 712992080#1 712992080#2 712992080#3 712992080#4 712992080#5 712992080#6 712992080#7 712992080#8 995113419 570859666#0 570859666#1 570859666#2 446922583#0 446922583#1 712992079#0 712992079#1 1202691839#0 -998790358#19 -998790358#18 -998790358#17 -998790358#16 -998790358#15 -998790358#14 -998790358#12 -998790358#11 -998790358#10 -998790358#9 -998790358#7 -998790358#6 -998790358#5 -998790358#4 -998790358#3 -998790358#2 -998790358#1 -998790358#0 998790353#0 998790353#1 998790353#3 998790353#4 -998790354#7 -998790354#5 -998790354#4 -998790354#3 -998790354#2 -998790354#1 -998790354#0 998790357#0 24577118#0"/>
    </vehicle>
    <vehicle id="6" depart="12.00">
        <route edges="-1073010467 -24584507#0 24584506 24584500#2 24584500#3 24584501 -80678182#2 -80678182#1 -80678182#0 581245357 581245359 581245363#0 581245363#2 581245363#3 581245363#4 581522562 570413588#0 570413588#1 714990513#0 714990513#1 714990513#2 714990513#3 570413589#0 570413589#1 570413589#2 447141139 1425368050#0 1425368050#1 447141140 722082949#0 722082949#1 447141153#0 447141153#1 24584389#0 24584389#1 1066625119#0 1066625119#1 1066625119#2 1066625119#3 717907819#4 717907819#5 717907818#0 717907818#1 717907817#0 717907817#1 717907817#2 717907817#3 717907817#4 717907817#5 24577101#1 722082948#0 722082948#1 447141145 998790362#0 998790362#1 1327208477#0 1327208477#1 24577106#0 24577106#1 24577106#2 24577106#3 24577106#4 24577106#5 24577106#6 24577106#7 998790361 447141132#0 447141132#1 447141132#2 447141132#3 447141132#4 596373329 562340239 722082943#0 722082943#1 23134734#0 23134734#1 712992071#0 712992071#1 712992071#2 712992071#3 712992071#4 712992071#5 712992071#6 712992071#7 712992071#8 712992071#9 712992071#10 712992071#11 712992071#12 24563449#8 24563449#9 24563449#10 24563449#11 706970966#0 706970966#1 706970966#2 150409381#1 23134098#4 23134098#5 23134098#6 23134098#7 23134098#8 656933873 656933872#0 656933872#1 582461171#0 582461171#2 581989173#0 581989173#1 581989173#2 581989173#3 581989173#4 581989173#5 581989173#6 680551206#0 680551206#2 680551212#0 680551212#1 23134680#0 -24577418#12 -24577418#11 -24577418#10 -24577418#9 -370902443#1 -370902443#0"/>
    </vehicle>
    <vehicle id="7" depart="14.00">
        <route edges="296963059#4 684972730#0 684972730#1 732001894 581989172#0 581989172#1 604050032 24577379#0 24577379#1 24577390#0 24577390#1 24577390#2 24577390#3 24577390#4 24577390#6 24577390#8 24577390#9 24577390#10 563679834#5 758753892 758753875 758753890#1 758753890#2 758753874 760817626 24577383#0 24577383#1 24577383#2 760817629 997761540 994825988 537797266#0 537797266#1 537797266#2 537797266#3 537797266#4 709276135#1 709276135#3 709276135#5 722082932 709276134 722082929 24577097#0 24577097#1 24577097#2 24577097#3 24577097#4 24577097#5 447141133#0 447141133#1 722082944 447141132#0 447141132#1 370545701#0 370545701#1 370545701#2 24583337#9 24583337#10 24583337#11 24583337#1 24583335#0"/>
    </vehicle>
    <vehicle id="8" depart="16.00">
        <route edges="-44277694#4 -44277694#3 -44277694#2 -44277694#1 -44277694#0 278577243#3 278577243#4 998197441 447141141 998197440 447141154 1278775919 24583771#1 24584396 1271156421#0 1271156421#1 1271156421#2 1271156421#3 1271156421#4 1271156421#5 1271156420#1 581245357 581245359 581245363#0 581245363#2 581245363#3 24584409#1 24584409#2 24584409#3"/>
    </vehicle>
    <vehicle id="9" depart="18.00">
        <route edges="585974872#3 -585974872#3 -585974872#2 -585974872#1 -585974872#0 80499271#2 80499271#3 446856065 446922582#0 446922582#1 446922582#3 446922582#7 446922582#8 446922582#9 446922582#10 446922582#11 446922582#12 581989173#0 581989173#1 581989173#2 581989173#3 581989173#4 581989173#5 581989173#6 680551206#0 680551206#2 680551212#0 680551212#1 23134680#0 23134680#1 -24577416#5 -24577416#4 -1057067123#2 -1057067123#1"/>
    </vehicle>
    <vehicle id="10" depart="20.00">
        <route edges="585446279#0 -1296316291 973071398 995113416#0 995113416#2 995113416#3 995113416#4 446922582#7 446922582#8 446922582#9 446922582#10 446922582#11 446922582#12 581989173#0 581989173#1 581989173#2 581989173#3 581989173#4 581989173#5 581989173#6 680551206#0 680551206#2 680551212#0 680551212#1 680551212#2 680551212#3 680551212#4 582461172#0 582461172#3 680551211 24563435#0 24563435#1 24563435#2 711421329 729959836 758488036 24577385#0 24577385#1 24577385#2 24577385#3 24577385#4 24577385#5 24577385#6 24577385#7 24577385#8 563679834#3 563679834#4 563679834#5 37222919#0 37222919#1 37222919#2 37222919#3 37222919#4 37222919#5 37222919#6 37222919#7"/>
    </vehicle>
    <vehicle id="11" depart="22.00">
        <route edges="1066625119#0 1066625119#1 1066625119#2 1066625119#3 717907819#4 717907819#5 717907818#0 717907818#1 44257667 717907819#0 717907819#1 717907819#2 24584388#0 24584388#1 24584388#2 24584389#3 714990514#0 714990514#1 24584398#0 24584398#1 24584398#2 24584398#3 24584398#4 570413587#0 570413587#1 24584423#0 24584423#1 24584423#2 24584423#3 80678182#0 -24584420#9"/>
    </vehicle>
    <vehicle id="12" depart="24.00">
        <route edges="80950003#4 37222924#2 28121266#2 683766458 570427350#0 28121291#0 28121291#1 28121291#2 758753890#2 758753894 24577393#0 24577393#1 758753896 24577391#0 24577391#1 24577391#2 570427353 570413595#0 570413595#1 570413594 1307222668#1 1307222668#2 760536611#1 760536611#2 760536611#3 760536611#4 760536611#5 447143201#0 447143201#1 24577102 717907819#0 717907819#1 717907819#2 24584388#0 24584388#1 24584388#2 24584389#3 782774053 722082950 570413589#0 570413589#1 570413589#2 447141139 24584380#0 24584380#1 24584380#2 24584380#3 24584380#4 24584380#5 24584380#6 24584380#7 24584380#8 24584380#9 24584379 1278775919 24583771#1 24583771#2 24583771#3 24583773 447141155#0 447141155#1 447141155#2 502579562 -24584511#9 -24584511#8 -1073010466 1072960946#2"/>
    </vehicle>
    <vehicle id="13" depart="26.00">
        <route edges="-1282019281#2 -1282019281#1 -1282019281#0 1282019281#0 1282019281#1 1282019281#2 709276135#3 709276135#5 722082932 709276134 722082929 709276137 722082930 712992074#0 712992074#1 712992074#2 712992074#3 712992074#4 712992074#5 712992074#6 712992074#7 712992074#8 712992074#9 712992074#10 712992074#11 712992074#12 712992074#13 24563449#6 24563449#7 24563449#8 24563449#9 24563449#10 24563449#11 706970966#0 706970966#1 706970966#2 150409381#1 23134098#4 23134098#5 23134098#6 23134098#7 23134098#8 656933873 656933872#0 656933872#1 582461171#0 582461171#2 581989173#0 581989173#1 581989173#2 581989173#3 581989173#4 581989173#5 581989173#6 44831985#0 44831985#1 44831985#2 44831985#3 44831985#4 548825886 1187268475#2 1187268475#3 1187268475#4 1187268467#0 585446280#6 585446280#7 585446280#8 169196737#0 -292194566 -169196737#1"/>
    </vehicle>
    <vehicle id="14" depart="28.00">
        <route edges="700305760#0 44277692#1 447141149#1 447141149#2 665150702 554665390 570526052 24583320 570526051 447141152 48964552#0 48964552#1 48964552#3 48964552#4 48964552#5 998197440 447141154 1278775919 24583771#1 24584396 1271156421#0 1271156421#1 1271156421#2 1271156421#3 1271156421#4 1271156421#5 1271156420#1 80678182#0 80678182#1 80678182#2 24584502 24584500#5 24584500#6 24584500#7 24584503#0 24584503#1 24584504#0 24584504#1 24584504#2"/>
    </vehicle>
    <vehicle id="15" depart="30.00">
        <route edges="585446280#1 23151254#1 1187268469 1187268468#0 1187268468#1 1187268468#2 1187268468#3 1187268468#4 77349485#1 77349485#2 77349485#3 77349485#4 77349485#5 77349485#6 680551212#0 680551212#1 680551212#2 680551212#3 680551212#4 582461172#0 582461172#3 680551211 24563435#0 24563435#1 24563435#2 711421329 729959836 758488036 24577385#0 24577385#1 24577385#2 24577385#3 24577385#4 24577385#5 24577385#6 24577385#7 24577385#8 563679834#3 563679834#4 563679834#5 758753892 758753875 37222896#0 37222896#1 37222896#2 570427350#2 570427350#3 570427350#4 683766459 28121266#0 37222895#0 37222895#1 37222895#2 37222895#3 37222895#4 37222895#5 37222895#6 27422252#6 708474898#0 708474898#1 708474898#2 708474898#3 708474898#4 708474898#5 708474898#6 708474898#7 708474898#8 708474898#9 24617983#4 24617983#5 24576720 150409384#1 150409384#2 150409384#3 554515705#0 554515705#1 554515705#2 570413600 582776168 1042816602 1042816605#0 1042816605#2 1042816605#3 1042816605#4 1042816605#5 44351932#0 44351932#1 44351932#3 44351932#4 44351932#5 44351932#6 44351932#7 44351932#8"/>
    </vehicle>
    <vehicle id="16" depart="32.00">
        <route edges="24577395 782774061#1 782774061#2 782774061#3 -80921410#2 -80921410#1 -80921410#0 24618002#5 24618002#6 24618002#7 24618002#1 -708488754#9 -708488754#8 -708488754#7 -708488754#6 -708488754#5 -708488754#4 710645768 700261790#0 700261790#1 -686645825#1 -686645825#0 80950076#1"/>
    </vehicle>
    <vehicle id="17" depart="34.00">
        <route edges="112102228 112102237#5 112102237#6 -112102196#5 -112102196#4 -112102196#3 -112102196#2 112102234 1187268468#3 1187268468#4 77349485#1 77349485#2 77349485#3 77349485#4 77349485#5 77349485#6 680551212#0 680551212#1 680551212#2 680551212#3 680551212#4 582461172#0 582461172#3 680551211 680551207 23134098#0 23134098#1 23134098#1-AddedOffRampEdge 24563431#0 24563431#1 24563449#2 24563449#3 24563449#4 24563449#5 24563449#6 24577095#0 24577095#1 24577095#2 24577095#4 24577095#5 24577095#6 24577095#7 23134734#3 710645770 447141133#0 447141133#1 722082944 447141132#0 447141132#1 370545701#0 370545701#1 370545701#2 24583337#9 24583337#10 24583337#11 24583337#1 24583337#2 24583337#3 24583337#4 24583337#5 1374632731 24583491#0 24583491#1 24583491#2"/>
    </vehicle>
    <vehicle id="18" depart="36.00">
        <route edges="675478334#2 675478334#3 675478334#4 675478334#5 675478334#7 675478334#8 675478334#9 1354558617 24584375#2 24584375#3 24584375#4 24584375#5 24584375#6 24584375#7 24584375#8 24584375#9 24584375#10 447141153#0 447141153#1 24584389#0 24584389#1 1066625119#0 1066625119#1 1066625119#2 1066625119#3 717907819#4 717907819#5 717907818#0 717907818#1 717907817#0 717907817#1 717907817#2 717907817#3 717907817#4 717907817#5 24577101#1 722082948#0 722082948#1 447141145 447141146 570413590 24577131 760536610#0 760536610#1 570413591 714992549#0 1307222667#1 722082947#0 722082947#1 722082946#0 722082946#1 760536612 680551209 758488038 758753872 758753873 24577391#0 24577391#1 24577391#2 1053851216 -1053851218 24577401 570427351 683766457 24577396 24577405 782686028#0 782686028#1 782686028#2 782686029 27422253#0 27422249#0 27422249#1 27422249#2 27422249#3 27422249#4"/>
    </vehicle>
    <vehicle id="19" depart="38.00">
        <route edges="708474903#3 708474903#4 708474903#5 708474903#6 27422253#2 722082935 570413597#0 570413597#1 570413597#2 24577406 -782686028#2 -782686028#1 -782686028#0 782686027 570413596#0 570413596#1 570413596#2 570413596#3 570413596#4 31756489 1053851218 1053851217 570413595#0 570413595#1 570413594 1307222668#1 1307222668#2 760536611#1 760536611#2 760536611#3 760536611#4 760536611#5 447143201#0 447143201#1 24577102 717907819#0 717907819#1 717907819#2 24584388#0 24584388#1 24584388#2 24584389#3 782774053 722082950 570413589#0 570413589#1 570413589#2 447141139 24584380#0 24584380#1 24584380#2 24584380#3 24584380#4 24584380#5 24584380#6 24584380#7 24584381#7"/>
    </vehicle>
    <vehicle id="21" depart="42.00">
        <route edges="-528320869 528320874#0 528320874#1 528320874#2 24576727#1 24576727#2 -1042816605#0 1042816603 24617971#0 24617971#1 150409383#0 150409383#1 150409383#2 150409382#1 570413598 1064518282 1064518285 710645766#0 710645766#1 24617983#0 24617983#1 24617994#0 24617994#1 24617994#2 24617994#3 24617994#4 24617994#5 27422252#2 27422252#3 27422252#4 27422252#5 27422252#6 708474898#0 708474898#1 708474898#2 708474898#3 708474898#4 708474898#5 -80950022#1 -80950022#0"/>
    </vehicle>
    <vehicle id="22" depart="44.00">
        <route edges="-1183854480 -112102215#0 112102238#4 112102238#5 -112102196#3 -112102196#2 112102234 1187268468#3 1187268468#4 77349485#1 77349485#2 77349485#3 77349485#4 77349485#5 77349485#6 680551212#0 680551212#1 680551212#2 680551212#3 680551212#4 582461172#0 582461172#3 680551211 680551207 23134098#0 23134098#1 23134098#1-AddedOffRampEdge 24563431#0 24563431#1 24563449#2 24563449#3 24563449#4 24563449#5 24563449#6 24577095#0 24577095#1 24577095#2 24577095#4 24577095#5 24577095#6 24577095#7 23134734#3 710645770 447141133#0 447141133#1 722082944 447141132#0 447141132#1 447141132#2 447141132#3 447141132#4 24577096#0 24577096#1 24577096#2 24577096#3 24577096#4 24577096#5 24577096#6 24577096#7 24577096#8 24577096#9 24577096#10 24577096#11 24577096#12 24577096#13 24577096#14 563974730#0 563974730#1 563974730#2 563974730#3 563974730#4 563974730#5 1066619122#0 1066619122#1 24583487#0 24583487#1 24583487#2 24583487#3 24583487#4 24583487#5 24583487#7 24583487#8 24583487#9 24583487#10 24583487#11 -24583489#13 -24583489#12 -24583489#11 -24583489#9 -24583489#8 -24583488#5 -24583488#4 -24583488#3 -24583488#2 612734122 -612734126#1 -612734126#0"/>
    </vehicle>
    <vehicle id="23" depart="46.00">
        <route edges="-142865883#1 142865883#1 1277942000#1 1277942000#3 1277942000#4 1277942000#5 1277942000#7 1277942000#8 1277941999#1 24583333#4 24583333#5 24583333#6 446922584#0 446922584#1 446922586#0 446922586#1 570859666#0 570859666#1 570859666#2 446922583#0 446922583#1 712992079#0 712992079#1 1202691839#0 -998790358#19 -998790358#18 -998790358#17 -998790358#16 -998790358#15 -998790358#14 -998790358#12 -998790358#11 -998790358#10 -998790358#9 -998790358#7 -998790358#6 -998790358#5 -998790358#4 -998790358#3 -998790358#2 -998790358#1 -998790358#0 998790353#0 998790353#1 998790353#3 998790353#4 -998790354#7 -998790354#5 -998790354#4 -998790354#3 -998790354#2 -998790354#1 -998790354#0 998790357#0 -998790356#8 -998790356#7 -998790356#6 -998790356#5 -998790356#4 -998790356#3 -998790356#2 -998790356#1 -998790356#0 998790360 23134734#0 23134734#1 23134734#2 23134734#3 710645770 447141133#0 447141133#1 722082944 447141132#0 447141132#1 370545701#0 370545701#1 370545701#2 24583337#9 24583337#10 24583337#11 24583337#1 24583335#0 24583335#1 24583335#2 24583335#4 24583335#5 447141147#2 24583324#0 24583324#1 590609994#0 590609994#1 717907807#0 717907807#1 717907807#2 717907807#3 717907807#4 717907807#6 24583320 570526051 447141152 570526053 447141150#0 111695525#0 1066625120#0 1066625120#1 1066625120#2 -44277694#4 80926778#6 80926778#7 -80926774#1 -80926774#0"/>
    </vehicle>
    <vehicle id="24" depart="48.00">
        <route edges="28121442#5 -28121442#5 -28121442#4 -28121442#3 -28121442#2 -28121442#1 -28121442#0 28121435#2 28121435#3 28121435#4 708488754#0 708488754#1 708488754#2 708488754#3 708488754#4 708488754#5 708488754#6 708488754#7 708488754#8 708488754#9 24618002#2 24618002#3 24618002#4 80921410#0 80921410#1 80921410#2 782774061#4 782774061#5 782774061#6 1307222666#0 1307222666#1 359757123 537797267#1 537797267#3 23134098#1 23134098#1-AddedOffRampEdge 23134098#3 23134098#4 23134098#5 23134098#6 23134098#7 23134098#8 656933873 656933872#0 656933872#1 582461171#0 582461171#2 581989173#0 581989173#1 581989173#2 581989173#3 581989173#4 581989173#5 581989173#6 44831985#0 44831985#1 44831985#2 44831985#3 44831985#4 44831985#5 1187268470#0 1187268470#1 1187268470#2 -112102196#6 -112102237#6 -112102237#5 -112102237#4 -112102237#3 -112102237#2 112102206#0"/>
    </vehicle>
    <vehicle id="25" depart="50.00">
        <route edges="112102196#4 -112102196#4 -112102196#3 -112102196#2 112102234 1187268468#3 1187268468#4 77349485#1 77349485#2 77349485#3 77349485#4 77349485#5 77349485#6 680551212#0 680551212#1 680551212#2 680551212#3 680551212#4 582461172#0 582461172#3 680551211 24563435#0 24563435#1 24563435#2 711421329 729959836 758488036 24577385#0 24577385#1 24577385#2 24577385#3 24577385#4 24577385#5 24577385#6 24577385#7 24577385#8 563679834#3 563679834#4 563679834#5 758753892 758753875 37222896#0 37222896#1 37222896#2 570427350#2 570427350#3 570427350#4 683766459 28121266#0 37222895#0 37222895#1 37222895#2 37222895#3 37222895#4 37222895#5 37222895#6 27422252#6 708474898#0 708474898#1 708474898#2 708474898#3 708474898#4 708474898#5 708474898#6 708474898#7 708474898#8 708474898#9 24617983#4 24617983#5 24576720 150409384#1 150409384#2 150409384#3 554515705#0 554515705#1 554515705#2 570413600 582776168 1042816602 1042816605#0 1042816605#2 1042816605#3 1042816605#4 1042816605#5 1042816605#6 1042816605#7 1307655969#0 1307655969#1 1307655969#2 1307655969#3 -44351930#3 -44351930#1"/>
    </vehicle>
    <vehicle id="26" depart="52.00">
        <route edges="-716015301#0 717047561 1187268468#0 1187268468#1 1187268468#2 1187268468#3 1187268468#4 77349485#1 77349485#2 77349485#3 77349485#4 77349485#5 77349485#6 680551212#0 680551212#1 680551212#2 680551212#3 680551212#4 582461172#0 582461172#3 680551211 680551207 23134098#0 -537797267#3 -537797267#1 -359757123 -1307222666#1 782774061#19 -691147545 782774061#6"/>
    </vehicle>
    <vehicle id="27" depart="54.00">
        <route edges="296963058#7 296963058#8 296963058#9 680551211 680551207 23134098#0 23134098#1 23134098#1-AddedOffRampEdge 24563431#0 24563431#1 24563449#2 24563449#3 24563449#4 24563449#5 24563449#6 24577095#0 24577095#1 24577095#2 24577095#4 24577095#5 24577095#6 24577095#7 23134734#3 710645770 447141133#0 447141133#1 722082944 447141132#0 447141132#1 370545701#0 370545701#1 370545701#2 24583337#9 24583337#10 24583337#11 24583337#1 24583335#0 24583335#1 24583335#2 24583335#4 24583335#5 447141147#2 24583324#0 24583324#1 590609994#0 590609994#1 717907807#0 717907807#1 717907807#2 717907807#3 717907807#4 717907807#6 24583320 570526051 447141152 48964552#0 48964552#1 48964552#3 48964552#4 48964552#5 998197440 447141154 1278775919 24583771#1 24583771#2 24583771#3 24583773 447141155#0 447141155#1 447141155#2 502579562 -24584511#9 -24584511#8 -1073010466 -1072960945#1 -1072960945#0 24584512#2"/>
    </vehicle>
    <vehicle id="28" depart="56.00">
        <route edges="-24584421#0 24584424#4 24584424#5 447141155#2 502579562 44188368#1 44188368#2 44188368#3 44188368#4 44188368#5 44188368#6 554798488#2 570859657#0 570859657#1 570859657#2 -1042816605#11 -1042816605#9 -1042816605#8 -1042816605#7 -1042816605#6 44351932#0 44351932#1 44351932#3"/>
    </vehicle>
    <vehicle id="29" depart="58.00">
        <route edges="-24584393 24584391#2 24584392#0 24584392#1 24584392#2 24584375#8 24584375#9 24584375#10 447141153#0 447141153#1 24584389#0 24584389#1 1066625119#0 1066625119#1 1066625119#2 1066625119#3 717907819#4 717907819#5 717907818#0 717907818#1 717907817#0 717907817#1 717907817#2 717907817#3 717907817#4 717907817#5 24577101#1 722082948#0 722082948#1 447141145 998790362#0 998790362#1 1327208477#0 1327208477#1 24577106#0 24577106#1 24577106#2 24577106#3 24577106#4 24577106#5 24577106#6 24577106#7 998790361 447141132#0 447141132#1 447141132#2 447141132#3 447141132#4 596373329 562340239 998790359 998790356#0 998790356#1 998790356#2 998790356#3 998790356#4 998790356#5 998790356#6 998790356#7 998790356#8 998790355#1 998790354#0 998790354#1 998790354#2 998790354#3 998790354#4 998790354#5 998790354#7 998790352#0 998790352#1 998790352#3 998790352#4 998790358#0 1121186669#0"/>
    </vehicle>
    <vehicle id="30" depart="60.00">
        <route edges="995793691 995793692#0 995793692#1 995793692#2 995793692#3 995793692#4 995793692#5 995793692#6 995793692#7 563791813 596373338#0 596373338#1 596373338#2 596373338#4 596373338#5 596373338#6 596373338#7 596373338#8 596373338#9 596373338#10 596373338#11 596373338#12 596373338#13 562340239 722082943#0 722082943#1 23134734#0 23134734#1 23134734#2 23134734#3 709276133#0 709276133#1 709276133#2 709276133#3 722082930 709276136 722082931 1181942240 709276138#1 709281061#1 709281061#2 1182424430#0 1182424430#1 1182424430#2 760817627 758488035 760817628 24577384#0 24577384#1 24577384#2 563679834#0 563679834#1 563679834#2 563679834#3 24577389#0 24577389#1 24577389#2 24577389#3 24577389#5 24577389#6 24577389#7 24577389#8 582461174#0 582461174#1 582461174#2 296963058#0 296963058#1 296963058#2"/>
    </vehicle>
    <vehicle id="31" depart="62.00">
        <route edges="24583488#0 24583488#1 24583488#2 24583488#3 24583488#4 24583488#5 24583489#8 24583489#9 24583489#11 24583489#12 24583489#13 24583487#12 24583487#13 994825990#0 994825990#1 994825990#2 447141148 572511731 447141147#0 24583334#0 24583334#1 24583334#4 24583334#5 24583337#3 24583337#4 24583337#5 24583337#6 24583337#7 24583339#0 24583339#1 24583339#2 24583339#3 24583339#4 24583339#5 24583339#6 447141132#4 596373329 562340239 722082943#0 722082943#1 23134734#0 23134734#1 23134734#2 23134734#3 709276133#0 709276133#1 709276133#2 709276133#3 722082930 709276136 722082931 1181942240 709276138#1 709281061#1 709281061#2 1182424430#0 1182424430#1 1182424430#2 760817627 758488035 760817628 24577384#0 24577384#1 24577384#2 563679834#0 563679834#1 563679834#2 563679834#3 563679834#4 563679834#5 758753892 758753875 37222896#0 37222896#1"/>
    </vehicle>
    <vehicle id="32" depart="64.00">
        <route edges="695569947 758753881#1 590609994#0 590609994#1 572511730 447141148 572511731 447141147#0 24583334#0 24583334#1 24583334#4 24583334#5 24583337#3 24583337#4 24583337#5 24583337#6 24583337#7 24583339#0 24583339#1 24583339#2 24583339#3 24583339#4 24583339#5 24583339#6 447141132#4 596373329 562340239 722082943#0 722082943#1 23134734#0 23134734#1 712992071#0 712992071#1 712992071#2 712992071#3 712992071#4 712992071#5 712992071#6 712992071#7 712992071#8 712992071#9 712992071#10 712992071#11 712992071#12 24563449#8 24563449#9 24563449#10 24563449#11 706970966#0 706970966#1 706970966#2 150409381#1 23134098#4 23134098#5 23134098#6 23134098#7 23134098#8 656933873 656933872#0 656933872#1 582461171#0 582461171#2 581989173#0 562202340#0 562202340#1 562202340#2 562202340#3 562202340#4 562202340#4-AddedOffRampEdge 562202340#5 562202340#6"/>
    </vehicle>
    <vehicle id="33" depart="66.00">
        <route edges="-528320872#2 -528320872#1 -528320872#0 528320865#1 -1042816605#3 -1042816605#2 -1042816605#0 1042816603 24617971#0 24617971#1 150409383#0 150409383#1 150409383#2 150409382#1 570413598 1064518282 1064518285 708474897#0 708474897#1 708474897#2 708474897#3 708474897#4 708474897#5 722082937 708488754#4 708488754#5 708488754#6 708488754#7 708488754#8 708488754#9 24618002#2 24618002#3 24618002#4 80921410#0 80921410#1 80921410#2 782774061#4 782774061#5 782774061#6 782774061#7 782774061#8 782774061#9 782774061#10 782774061#11 782774061#12 267446576#0 267446576#1 267446576#2 447143201#1 24577101#0 24577101#1 722082948#0 722082948#1 447141145 998790362#0 998790362#1 1327208477#0 1327208477#1 24577106#0 24577106#1 24577106#2 24577106#3 24577106#4 24577106#5 24577106#6 24577106#7 998790361 447141132#0 447141132#1 447141132#2 447141132#3 447141132#4 596373329 562340239 998790359 998790356#0 998790356#1 998790356#2 998790356#3 998790356#4 998790356#5 998790356#6 998790356#7 998790356#8 998790355#1 998790354#0 998790354#1 998790354#2 998790354#3 998790354#4 998790354#5 998790354#7 998790352#0 998790352#1 1242128092#1 -1074764284#1 -1074764284#0"/>
    </vehicle>
    <vehicle id="34" depart="68.00">
        <route edges="-993538723#0 993538724 370672197#5 370672197#7 370672197#8 656933877#19 24563433 656933872#0 656933872#1 582461171#0 582461171#2 581989173#0 581989173#1 581989173#2 581989173#3 581989173#4 581989173#5 581989173#6 680551206#0 680551206#2 680551212#0 680551212#1 680551212#2 680551212#3 680551212#4 582461172#0 582461172#3 680551211 24563435#0 24563435#1 24563435#2 711421329 729959836 758488036 711421332#0 711421332#1 711421327#0 711421327#1 760817628 614072005 760817629 760817632#0 760817632#1 760817632#2 760817632#3 758753872 758753873 24577391#0 24577391#1 24577391#2 1053851216 -1053851218 24577401 570427351 683766457 24577396 24577405 782686028#0 782686028#1 782686028#2 782686029 27422253#0 27422249#0 27422249#1 -708474902#0 -769948199"/>
    </vehicle>
    <vehicle id="35" depart="70.00">
        <route edges="-370902452#1 370902452#1 370902452#2 370902452#3 370902452#4 370902452#5 -112102221#1 -112102244#1 -112102244#0 24577372#3 24577372#4 24577372#5 680551212#3 680551212#4 582461172#0 582461172#3 680551211 680551207 23134098#0 23134098#1 23134098#1-AddedOffRampEdge 23134098#3 23134098#4 23134098#5 23134098#6 23134098#7 23134098#8 656933873 656933872#0 656933872#1 80499762#0 80499762#2 80499762#3 80499762#4 80499762#5"/>
    </vehicle>
    <vehicle id="36" depart="72.00">
        <route edges="711421327#0 711421327#1 760817628 614072005 760817629 997761540 994825988 537797266#0 537797266#1 537797266#2 537797266#3 537797266#4 709276135#1 709276135#3 709276135#5 722082932 1053851215#0 1053851215#1 -1327208478 1053851211#0"/>
    </vehicle>
    <vehicle id="37" depart="74.00">
        <route edges="359757123 709276135#1 709276135#3 709276135#5 722082932 709276134 722082929 24577097#0 24577097#1 24577097#2 24577097#3 24577097#4 24577097#5 447141133#0 447141133#1 722082944 447141132#0 447141132#1 447141132#2 447141132#3 447141132#4 596373329 562340239 998790359 998790356#0 998790356#1 998790356#2 998790356#3 998790356#4 998790356#5 998790356#6 998790356#7 998790356#8 998790355#1 998790354#0 998790354#1 998790354#2 998790354#3 998790354#4 998790354#5 998790354#7 998790352#0 998790352#1 116046167#1 116046167#2 116046167#3 116046167#5 116046167#6 116046167#7 116046167#8 116046167#9"/>
    </vehicle>
    <vehicle id="38" depart="76.00">