<?xml version="1.0" encoding="UTF-8"?>

<!-- generated on 2025-09-30 09:28:20 by Eclipse SUMO polyconvert Version 1.23.1
<polyconvertConfiguration xmlns:xsi="http://www.w3.org/2001/XMLSchema-instance" xsi:noNamespaceSchemaLocation="http://sumo.dlr.de/xsd/polyconvertConfiguration.xsd">

    <input>
        <net-file value="mymap.net.xml"/>
        <osm-files value="mymap.osm"/>
        <type-file value="/usr/share/sumo/data/typemap/osmPolyconvert.typ.xml"/>
    </input>

    <output>
        <output-file value="mymap.poly.xml"/>
    </output>

</polyconvertConfiguration>
-->

<additional xmlns:xsi="http://www.w3.org/2001/XMLSchema-instance" xsi:noNamespaceSchemaLocation="http://sumo.dlr.de/xsd/additional_file.xsd">
    <location netOffset="-712571.73,-3161988.62" convBoundary="-1587.02,0.00,8460.21,11322.81" origBoundary="77.158042,28.566854,77.260806,28.668686" projParameter="+proj=utm +zone=43 +ellps=WGS84 +datum=WGS84 +units=m +no_defs"/>

    <poly id="1000446014" type="commercial" color="209,209,204" fill="1" layer="-3.00" shape="4777.415478,6930.190326 4791.526432,6956.717728 4796.518943,6953.362576 4834.251635,6923.719715 4876.127358,6896.959055 4927.387292,6869.508427 4919.163012,6859.920368 4910.098664,6850.793418 4885.903306,6827.903172 4855.527371,6800.186037 4827.753120,6790.356243 4742.064194,6737.651638 4678.872453,6879.142869 4777.415478,6930.190326"/>
    <poly id="1024422181" type="landuse" color="194,194,130" fill="1" layer="-3.00" shape="5725.019140,5144.959262 5724.529350,5143.420117 5724.108227,5141.871167 5723.755980,5140.301330 5723.462619,5138.721505 5723.228147,5137.131692 5723.072329,5135.521174 5722.974984,5133.922835 5722.936528,5132.314508 5722.976312,5130.707642 5723.074777,5129.101872 5723.241703,5127.497379 5723.476883,5125.905249 5723.770536,5124.325296 5724.132444,5122.757705 5724.552826,5121.202293 5725.041254,5119.670325 5725.597937,5118.150719 5726.202900,5116.665274 5726.875911,5115.203275 5727.607188,5113.764537 5728.406306,5112.360326 5729.253703,5110.990278 5730.149174,5109.665475 5731.112693,5108.364117 5732.114504,5107.107822 5733.174375,5105.885871 5734.282113,5104.720249 5735.438131,5103.588790 5736.642015,5102.513659 5737.884193,5101.483591 5743.441630,5097.795618 5749.548315,5095.082468 5756.026548,5093.429520 5762.689471,5092.888721 5769.351259,5093.456600 5775.816306,5095.129504 5781.909190,5097.870898 5787.455728,5101.577744 5792.300886,5106.169538 5796.300653,5111.499459 5799.350138,5117.421416 5801.344865,5123.767153 5802.249028,5130.358609 5802.027027,5137.006641 5800.682589,5143.511752 5798.267515,5149.719693 5794.834641,5155.420799 5790.484458,5160.472817 5785.347007,5164.722958 5779.561279,5168.062951 5773.295605,5170.385070 5766.727267,5171.626105 5760.042705,5171.756278 5753.437934,5170.757074 5747.078385,5168.675930 5741.178185,5165.572281 5735.873011,5161.515179 5731.336628,5156.629825 5727.683707,5151.062490 5725.019140,5144.959262"/>
    <poly id="1024422182" type="landuse" color="194,194,130" fill="1" layer="-3.00" shape="5774.421648,5111.135205 5775.692081,5109.640016 5777.983482,5111.101938 5780.324818,5112.509359 5778.873789,5114.245088 5776.733437,5112.553160 5774.421648,5111.135205"/>
    <poly id="1024422183" type="landuse" color="194,194,130" fill="1" layer="-3.00" shape="5780.119075,5115.144214 5782.603905,5117.773880 5784.886559,5121.275642 5786.632132,5124.723026 5787.144115,5127.692806 5787.359019,5131.377691 5789.851502,5131.501849 5789.779005,5128.573537 5789.088911,5125.711300 5788.070432,5122.621190 5786.526982,5119.876060 5784.594602,5117.001709 5782.777358,5114.772553 5781.490208,5113.495689 5780.119075,5115.144214"/>
    <poly id="1024422184" type="landuse" color="194,194,130" fill="1" layer="-3.00" shape="5787.988259,5133.307487 5790.181490,5133.215404 5789.972795,5135.484334 5789.574863,5138.980382 5788.863036,5141.472742 5787.855942,5144.059369 5786.639327,5146.863823 5784.940744,5149.282320 5783.381775,5151.559293 5781.915276,5150.456470 5783.707467,5147.740373 5785.180279,5145.362008 5786.556687,5142.383147 5787.342564,5139.592823 5787.966473,5136.045560 5787.988259,5133.307487"/>
    <poly id="1024422185" type="landuse" color="194,194,130" fill="1" layer="-3.00" shape="5777.526133,5157.071026 5776.066258,5155.613545 5778.740571,5153.335226 5780.325000,5151.790467 5782.110309,5153.109896 5779.690485,5155.381880 5777.526133,5157.071026"/>
    <poly id="1024423419" type="landuse" color="194,194,130" fill="1" layer="-3.00" shape="5755.018341,5137.991358 5755.346158,5138.773566 5755.997961,5139.495303 5757.029326,5140.323910 5758.447909,5140.849313 5759.898524,5141.231184 5761.598608,5141.351626 5761.586243,5142.537700 5760.558711,5142.551773 5759.406106,5142.452641 5758.190835,5142.041904 5756.927699,5141.574839 5755.583991,5140.707138 5754.959252,5140.107864 5754.277488,5139.418828 5753.766746,5138.477987 5753.669720,5137.910740 5755.018341,5137.991358"/>
    <poly id="1024423420" type="landuse" color="194,194,130" fill="1" layer="-3.00" shape="5762.770258,5142.526549 5764.210005,5142.442565 5765.676555,5141.971038 5767.002820,5141.153196 5768.077493,5140.186525 5767.194279,5139.283075 5765.910706,5140.434323 5764.922346,5140.970214 5763.663040,5141.345829 5762.771601,5141.406791 5762.770258,5142.526549"/>
    <poly id="1024423421" type="landuse" color="194,194,130" fill="1" layer="-3.00" shape="5768.830871,5139.136246 5769.560135,5138.329429 5770.143732,5137.464457 5770.607639,5136.198120 5770.848259,5134.838917 5770.884170,5133.963718 5769.475833,5133.937418 5769.420621,5135.322257 5769.056171,5136.501756 5768.638215,5137.403082 5767.818860,5138.319086 5768.830871,5139.136246"/>
    <poly id="1024423422" type="landuse" color="194,194,130" fill="1" layer="-3.00" shape="5769.480074,5132.662497 5770.937312,5132.689710 5771.047272,5131.516546 5770.918577,5130.549577 5770.603231,5129.623470 5770.246281,5128.829630 5769.672099,5128.142603 5768.879389,5127.107799 5767.745621,5128.095541 5768.598874,5129.031692 5769.274428,5130.053221 5769.517588,5131.177545 5769.480074,5132.662497"/>
    <poly id="1024423423" type="landuse" color="194,194,130" fill="1" layer="-3.00" shape="5766.717360,5127.100686 5767.715449,5126.043889 5766.895107,5125.440961 5765.895205,5125.023159 5764.162206,5124.569492 5761.984342,5124.362519 5761.958679,5125.736823 5763.882880,5125.905798 5765.497689,5126.401606 5766.717360,5127.100686"/>
    <poly id="1024423424" type="landuse" color="194,194,130" fill="1" layer="-3.00" shape="5755.297802,5129.836574 5755.923210,5128.828252 5756.848437,5127.481833 5758.245647,5126.532271 5759.537399,5125.990957 5760.705373,5125.791028 5760.671735,5124.448878 5758.629810,5124.820966 5756.952495,5125.576819 5755.481443,5126.813263 5754.286771,5128.442912 5753.626022,5129.772096 5755.297802,5129.836574"/>
    <poly id="1024427218" type="amenity" color="237,199,199" fill="1" layer="-1.00" shape="5570.734222,5142.279254 5569.795500,5140.155221 5569.722803,5137.759084 5570.817723,5135.706253 5572.765642,5134.079555 5576.165483,5133.289293 5579.378445,5134.125327 5581.414667,5136.680055 5581.728142,5139.280250 5580.900921,5142.191769 5578.613654,5144.178004 5575.101004,5144.722247 5572.415344,5143.940401 5570.734222,5142.279254"/>
    <poly id="1024427218#1" type="historic" color="128,255,128" fill="1" layer="-1.00" shape="5570.734222,5142.279254 5569.795500,5140.155221 5569.722803,5137.759084 5570.817723,5135.706253 5572.765642,5134.079555 5576.165483,5133.289293 5579.378445,5134.125327 5581.414667,5136.680055 5581.728142,5139.280250 5580.900921,5142.191769 5578.613654,5144.178004 5575.101004,5144.722247 5572.415344,5143.940401 5570.734222,5142.279254"/>
    <poly id="1024434128" type="historic" color="128,255,128" fill="1" layer="-1.00" shape="5760.213442,5135.893149 5760.255657,5131.536762 5765.793069,5131.540384 5765.642029,5135.961261 5760.213442,5135.893149"/>
    <poly id="1024439082" type="water" color="181,209,209" fill="1" layer="-4.00" shape="5667.249746,5144.313207 5667.229601,5142.771744 5676.009186,5142.569755 5675.978982,5144.187886 5667.249746,5144.313207"/>
    <poly id="1024439083" type="water" color="181,209,209" fill="1" layer="-4.00" shape="5666.506870,5129.076954 5666.457591,5127.523861 5675.725366,5127.375331 5675.732627,5129.082857 5666.506870,5129.076954"/>
    <poly id="1024439084" type="water" color="181,209,209" fill="1" layer="-4.00" shape="5816.296516,5144.590559 5817.239458,5139.153385 5819.518226,5139.195949 5818.569694,5144.932367 5816.296516,5144.590559"/>
    <poly id="1024439085" type="water" color="181,209,209" fill="1" layer="-4.00" shape="5816.961364,5121.043178 5819.261301,5120.476354 5817.070252,5115.213469 5814.855644,5115.926018 5816.961364,5121.043178"/>
    <poly id="1024439952" type="building" color="255,230,230" fill="1" layer="-1.00" shape="5752.556998,5319.571991 5751.924775,5292.131040 5757.194274,5291.808139 5757.199417,5268.481267 5780.518995,5267.652851 5782.086677,5290.576710 5787.913638,5290.264234 5788.388521,5318.267690 5774.028267,5318.697968 5772.962308,5291.958477 5765.426334,5292.106001 5766.195445,5319.549511 5752.556998,5319.571991"/>
    <poly id="1024439953" type="building" color="255,230,230" fill="1" layer="-1.00" shape="5747.072168,4995.575137 5770.668255,4995.162038 5770.683713,4971.281018 5775.653119,4971.318380 5775.302668,4944.503570 5761.101700,4944.238397 5761.580209,4971.532334 5754.056501,4971.535980 5753.838579,4944.956476 5739.763984,4945.259123 5740.544020,4972.126294 5746.798777,4971.965902 5747.072168,4995.575137"/>
    <poly id="1024448926" type="landuse" color="194,194,130" fill="1" layer="-3.00" shape="1905.883739,4013.783889 1922.605397,4006.817675 1926.645883,4014.840896 1920.524591,4016.779674 1921.547821,4019.137721 1917.130940,4018.834993 1913.194717,4017.931315 1909.336715,4016.496913 1905.883739,4013.783889"/>
    <poly id="1024448927" type="landuse" color="194,194,130" fill="1" layer="-3.00" shape="1934.915800,4001.910309 1950.404543,3996.019100 1950.011852,3999.825706 1949.053879,4002.978919 1947.152675,4006.347652 1945.309929,4009.196386 1943.693291,4010.386268 1943.036655,4008.312109 1938.602543,4010.015741 1934.915800,4001.910309"/>
    <poly id="1024448928" type="historic" color="128,255,128" fill="1" layer="-1.00" shape="1927.949150,4014.199597 1924.253459,4006.581817 1933.757414,4002.654044 1937.322901,4010.435739 1927.949150,4014.199597"/>
    <poly id="1026898819" type="landuse" color="194,194,130" fill="1" layer="-3.00" shape="5567.442703,5012.456249 5567.483643,5010.261798 5551.866358,5010.402840 5552.303720,5027.340759 5555.151826,5027.283022 5554.838760,5012.598070 5567.442703,5012.456249"/>
    <poly id="1026898820" type="landuse" color="194,194,130" fill="1" layer="-3.00" shape="5568.257064,5044.845317 5568.343472,5047.031057 5552.726235,5047.172094 5552.616154,5031.570713 5555.415358,5031.512063 5555.654395,5044.920636 5568.257064,5044.845317"/>
    <poly id="1026898821" type="landuse" color="194,194,130" fill="1" layer="-3.00" shape="5574.883564,5044.159599 5574.842622,5046.354050 5590.459863,5046.213041 5589.909722,5030.603445 5587.219134,5030.608678 5587.487476,5044.017801 5574.883564,5044.159599"/>
    <poly id="1026898822" type="landuse" color="194,194,130" fill="1" layer="-3.00" shape="5573.552731,5011.661111 5573.476310,5009.464470 5589.308764,5009.327472 5589.763358,5026.387675 5587.121670,5026.393821 5586.859819,5011.587864 5573.552731,5011.661111"/>
    <poly id="1026902501" type="historic" color="128,255,128" fill="1" layer="-1.00" shape="5764.814542,5085.444706 5764.978162,5084.017543 5766.769588,5083.962300 5769.172403,5084.173474 5771.874886,5084.578723 5774.401532,5084.969602 5775.812826,5085.361827 5776.971284,5085.671722 5780.144922,5086.518163 5782.620235,5087.562216 5785.131357,5088.784330 5787.651430,5090.050959 5789.719339,5091.431101 5790.587341,5092.101442 5791.622434,5092.730556 5790.469100,5093.717930 5789.560322,5093.135523 5788.005380,5092.053222 5786.059852,5090.930366 5784.541340,5089.992877 5782.637468,5089.258843 5780.590826,5088.311491 5777.895589,5087.518331 5775.725169,5086.912365 5772.938598,5086.294892 5769.924600,5085.806217 5767.092492,5085.531591 5764.814542,5085.444706"/>
    <poly id="1026902502" type="historic" color="128,255,128" fill="1" layer="-1.00" shape="5758.007135,5085.339763 5757.967701,5084.307939 5756.497365,5084.457875 5752.688590,5085.140668 5749.406081,5085.933072 5745.873895,5086.997988 5742.036509,5088.689163 5738.886219,5090.260126 5735.867678,5092.110722 5734.234501,5093.122403 5732.415970,5094.629536 5733.405529,5095.601491 5734.320616,5094.798141 5735.510582,5093.944490 5737.809998,5092.357640 5739.570524,5091.337250 5741.223676,5090.303769 5743.944108,5089.223695 5745.958506,5088.230220 5748.241368,5087.530020 5751.526360,5086.604619 5754.808662,5085.823299 5756.632946,5085.580190 5758.007135,5085.339763"/>
    <poly id="1026902503" type="historic" color="128,255,128" fill="1" layer="-1.00" shape="5718.128758,5117.334964 5716.863755,5116.967651 5717.800304,5114.490571 5718.889142,5111.716986 5720.505488,5108.986511 5723.027498,5104.909249 5725.041107,5102.385757 5726.061443,5101.185241 5727.103835,5101.947530 5724.732347,5104.774775 5722.705703,5107.996502 5721.030262,5110.748048 5719.180283,5113.939813 5718.128758,5117.334964"/>
    <poly id="1026902504" type="historic" color="128,255,128" fill="1" layer="-1.00" shape="5809.219324,5121.741182 5811.219389,5120.991364 5809.763863,5117.205698 5807.030039,5111.145502 5803.751886,5105.418837 5799.406503,5100.259851 5798.078370,5099.082001 5796.739213,5100.065904 5800.268137,5103.890293 5802.785047,5106.897520 5804.609843,5109.769864 5807.226206,5114.785690 5808.782948,5119.438030 5809.219324,5121.741182"/>
    <poly id="1026902505" type="historic" color="128,255,128" fill="1" layer="-1.00" shape="5718.039902,5150.915697 5719.430692,5150.309706 5720.884585,5154.184025 5722.702825,5157.932103 5725.090530,5161.047770 5727.106536,5163.635411 5729.976721,5166.061609 5728.606788,5167.122553 5727.314826,5165.579517 5725.033516,5163.053445 5723.176942,5160.834651 5721.623551,5158.621518 5720.419759,5156.547955 5718.881210,5153.015752 5718.039902,5150.915697"/>
    <poly id="1026902824" type="historic" color="128,255,128" fill="1" layer="-1.00" shape="5735.885371,5172.380629 5736.508706,5171.483137 5739.498263,5173.279610 5742.871726,5174.950209 5746.430182,5176.668612 5751.385481,5177.980707 5756.052342,5179.021331 5760.066990,5179.362386 5762.822696,5179.535803 5762.803862,5180.544364 5760.309941,5180.497793 5757.199875,5180.439716 5752.930065,5179.617158 5748.714743,5178.496271 5743.845757,5176.753397 5740.465825,5174.905286 5737.394096,5173.317930 5735.885371,5172.380629"/>
    <poly id="1026902825" type="historic" color="128,255,128" fill="1" layer="-1.00" shape="5769.363141,5180.312072 5769.295404,5179.224285 5772.806401,5178.768765 5776.760763,5177.623047 5781.385760,5176.190507 5784.913060,5174.338337 5789.332575,5171.859788 5792.263241,5169.475391 5793.335843,5168.619553 5794.280424,5169.380021 5791.621065,5171.381442 5787.808743,5173.826982 5783.529255,5176.141842 5779.120921,5178.021906 5775.118486,5179.122378 5771.949843,5180.105378 5769.363141,5180.312072"/>
    <poly id="1026902826" type="historic" color="128,255,128" fill="1" layer="-1.00" shape="5799.864763,5162.155837 5802.130128,5159.249015 5804.616660,5156.024803 5806.081250,5152.515416 5808.146517,5148.274422 5809.373128,5143.363634 5810.110527,5138.454795 5811.783963,5138.430616 5811.067471,5142.220062 5810.235325,5146.439740 5808.411298,5151.383718 5806.838091,5154.946510 5804.395335,5158.969801 5802.521536,5161.340675 5801.744456,5162.612249 5799.864763,5162.155837"/>
    <poly id="103176779" type="building" color="255,230,230" fill="1" layer="-1.00" shape="4306.483781,6900.163822 4346.526994,6898.800647 4346.407660,6895.217370 4362.166390,6894.689511 4360.683686,6851.789016 4342.536449,6852.405583 4343.453852,6878.864820 4305.789031,6880.150201 4306.483781,6900.163822"/>
    <poly id="103176781" type="building" color="255,230,230" fill="1" layer="-1.00" shape="4176.082408,6860.004406 4175.258974,6852.716147 4173.524509,6846.552936 4171.432461,6840.682438 4167.997219,6833.922249 4164.317329,6828.221863 4159.893465,6823.605279 4154.642232,6819.294869 4149.124211,6815.655813 4157.330059,6797.791860 4163.377778,6801.352050 4168.989566,6804.682420 4173.930352,6808.854035 4178.388899,6813.183009 4182.088229,6818.362678 4185.519422,6823.759110 4188.485670,6829.435178 4190.664782,6834.830560 4192.218266,6840.203249 4193.954071,6846.821049 4194.601776,6853.562794 4194.485607,6859.824719 4176.082408,6860.004406"/>
    <poly id="1034066933" type="landuse" color="194,194,130" fill="1" layer="-3.00" shape="5259.461807,5161.221879 5355.184809,5156.941128 5362.737107,5160.119717 5368.223753,5168.093709 5375.457227,5172.630056 5386.822634,5175.414092 5401.091407,5177.797702 5415.235999,5178.970538 5427.290897,5177.831607 5439.058256,5175.323634 5453.296060,5171.498046 5463.292289,5166.384900 5469.687408,5158.166783 5474.796222,5153.871630 5485.625752,5152.865121 5497.504570,5152.776235 5504.632383,5154.583308 5510.461608,5160.446157 5513.992221,5167.330481 5518.256050,5175.292830 5522.553984,5181.426471 5518.681728,5184.990757 5524.145518,5194.183969 5523.122885,5200.229451 5516.837855,5210.411983 5485.891600,5269.227515 5419.067335,5397.975700 5410.931150,5401.460510 5391.701977,5403.829373 5376.899377,5397.034287 5294.666432,5347.927532 5284.490076,5338.569010 5276.444210,5328.806718 5271.028190,5321.244299 5268.549494,5310.931621 5266.761404,5296.108347 5264.992371,5273.435886 5263.399774,5256.520828 5262.597061,5238.168100 5260.344009,5219.943569 5259.295995,5199.003020 5256.360833,5172.228853 5256.807880,5165.562855 5257.771188,5163.219288 5259.461807,5161.221879"/>
    <poly id="1034066933#1" type="tourism" color="207,245,201" fill="1" layer="-2.00" shape="5259.461807,5161.221879 5355.184809,5156.941128 5362.737107,5160.119717 5368.223753,5168.093709 5375.457227,5172.630056 5386.822634,5175.414092 5401.091407,5177.797702 5415.235999,5178.970538 5427.290897,5177.831607 5439.058256,5175.323634 5453.296060,5171.498046 5463.292289,5166.384900 5469.687408,5158.166783 5474.796222,5153.871630 5485.625752,5152.865121 5497.504570,5152.776235 5504.632383,5154.583308 5510.461608,5160.446157 5513.992221,5167.330481 5518.256050,5175.292830 5522.553984,5181.426471 5518.681728,5184.990757 5524.145518,5194.183969 5523.122885,5200.229451 5516.837855,5210.411983 5485.891600,5269.227515 5419.067335,5397.975700 5410.931150,5401.460510 5391.701977,5403.829373 5376.899377,5397.034287 5294.666432,5347.927532 5284.490076,5338.569010 5276.444210,5328.806718 5271.028190,5321.244299 5268.549494,5310.931621 5266.761404,5296.108347 5264.992371,5273.435886 5263.399774,5256.520828 5262.597061,5238.168100 5260.344009,5219.943569 5259.295995,5199.003020 5256.360833,5172.228853 5256.807880,5165.562855 5257.771188,5163.219288 5259.461807,5161.221879"/>
    <poly id="1034067275" type="landuse" color="194,194,130" fill="1" layer="-3.00" shape="5655.156966,5129.131195 5655.310249,5120.918625 5676.309780,5120.700807 5677.204920,5112.579692 5680.130680,5101.547352 5686.175730,5089.032153 5696.347591,5074.520733 5702.962604,5067.637266 5710.637871,5061.084031 5719.187211,5055.400815 5727.546500,5050.989055 5743.048953,5045.468933 5755.792540,5043.611446 5754.947815,5014.448061 5754.913848,4995.832425 5746.684737,4995.889425 5746.092899,4973.615766 5731.323528,4973.927622 5730.780984,4953.728148 5698.104914,4955.224660 5687.567693,4955.759706 5656.475190,5012.898032 5620.856025,5075.650638 5620.899435,5082.237095 5626.814244,5088.755731 5633.610054,5100.490591 5637.446521,5109.331967 5640.677202,5119.703125 5642.073744,5124.030926 5644.296456,5127.076973 5646.310094,5128.744337 5648.268245,5129.191101 5655.156966,5129.131195"/>
    <poly id="1034067275#1" type="tourism" color="207,245,201" fill="1" layer="-2.00" shape="5655.156966,5129.131195 5655.310249,5120.918625 5676.309780,5120.700807 5677.204920,5112.579692 5680.130680,5101.547352 5686.175730,5089.032153 5696.347591,5074.520733 5702.962604,5067.637266 5710.637871,5061.084031 5719.187211,5055.400815 5727.546500,5050.989055 5743.048953,5045.468933 5755.792540,5043.611446 5754.947815,5014.448061 5754.913848,4995.832425 5746.684737,4995.889425 5746.092899,4973.615766 5731.323528,4973.927622 5730.780984,4953.728148 5698.104914,4955.224660 5687.567693,4955.759706 5656.475190,5012.898032 5620.856025,5075.650638 5620.899435,5082.237095 5626.814244,5088.755731 5633.610054,5100.490591 5637.446521,5109.331967 5640.677202,5119.703125 5642.073744,5124.030926 5644.296456,5127.076973 5646.310094,5128.744337 5648.268245,5129.191101 5655.156966,5129.131195"/>
    <poly id="1034067339" type="tourism" color="207,245,201" fill="1" layer="-2.00" shape="5703.260077,4923.822861 5728.022627,4878.229929 5735.743311,4872.919287 5747.945285,4871.783404 5835.541451,4919.330319 5703.260077,4923.822861"/>
    <poly id="1034067799" type="landuse" color="194,194,130" fill="1" layer="-3.00" shape="5883.716817,5119.873287 5876.037337,5119.840676 5874.928151,5118.988430 5874.878611,5114.308804 5851.748256,5114.941027 5850.901715,5107.884988 5848.150941,5100.638160 5843.530920,5091.327500 5838.594713,5083.230502 5832.496985,5075.510941 5823.255675,5065.858969 5815.346882,5059.768636 5807.991980,5055.451481 5799.189603,5051.107297 5791.647159,5048.449694 5781.803623,5045.372168 5772.614685,5043.914483 5764.278439,5043.947294 5763.803347,5025.378853 5762.912993,4995.516136 5770.807922,4995.541603 5770.969309,4972.228743 5785.798870,4972.361539 5785.425428,4952.542169 5878.379477,4949.965571 5885.612793,4973.361165 5887.601575,5019.298368 5889.702070,5081.247246 5886.904401,5109.500006 5886.288407,5115.763721 5885.215728,5118.193899 5883.716817,5119.873287"/>
    <poly id="1034067799#1" type="tourism" color="207,245,201" fill="1" layer="-2.00" shape="5883.716817,5119.873287 5876.037337,5119.840676 5874.928151,5118.988430 5874.878611,5114.308804 5851.748256,5114.941027 5850.901715,5107.884988 5848.150941,5100.638160 5843.530920,5091.327500 5838.594713,5083.230502 5832.496985,5075.510941 5823.255675,5065.858969 5815.346882,5059.768636 5807.991980,5055.451481 5799.189603,5051.107297 5791.647159,5048.449694 5781.803623,5045.372168 5772.614685,5043.914483 5764.278439,5043.947294 5763.803347,5025.378853 5762.912993,4995.516136 5770.807922,4995.541603 5770.969309,4972.228743 5785.798870,4972.361539 5785.425428,4952.542169 5878.379477,4949.965571 5885.612793,4973.361165 5887.601575,5019.298368 5889.702070,5081.247246 5886.904401,5109.500006 5886.288407,5115.763721 5885.215728,5118.193899 5883.716817,5119.873287"/>
    <poly id="1034068002" type="landuse" color="194,194,130" fill="1" layer="-3.00" shape="5655.779840,5142.934989 5655.740549,5150.805992 5668.189735,5150.561620 5677.666805,5150.206347 5679.013150,5156.174086 5680.940299,5162.474189 5682.969027,5169.097710 5687.540440,5178.396306 5692.524605,5184.975219 5698.843366,5192.909484 5704.607330,5198.593830 5712.835712,5204.856364 5720.127933,5209.382947 5729.151372,5213.409686 5737.217754,5216.819865 5746.267051,5219.461231 5753.795465,5220.244855 5762.675750,5220.410685 5763.328249,5244.670055 5764.323764,5267.849310 5756.517661,5267.792231 5756.851301,5291.313908 5742.597924,5291.258396 5742.920247,5311.719859 5702.549519,5312.484988 5661.829624,5242.331575 5630.870237,5195.399188 5628.833537,5190.250093 5629.520155,5185.961171 5632.527431,5180.518167 5638.199660,5167.530340 5641.006830,5157.083389 5642.758043,5149.222163 5643.388702,5146.883500 5645.706354,5144.842409 5648.511772,5142.876944 5655.779840,5142.934989"/>
    <poly id="1034068002#1" type="tourism" color="207,245,201" fill="1" layer="-2.00" shape="5655.779840,5142.934989 5655.740549,5150.805992 5668.189735,5150.561620 5677.666805,5150.206347 5679.013150,5156.174086 5680.940299,5162.474189 5682.969027,5169.097710 5687.540440,5178.396306 5692.524605,5184.975219 5698.843366,5192.909484 5704.607330,5198.593830 5712.835712,5204.856364 5720.127933,5209.382947 5729.151372,5213.409686 5737.217754,5216.819865 5746.267051,5219.461231 5753.795465,5220.244855 5762.675750,5220.410685 5763.328249,5244.670055 5764.323764,5267.849310 5756.517661,5267.792231 5756.851301,5291.313908 5742.597924,5291.258396 5742.920247,5311.719859 5702.549519,5312.484988 5661.829624,5242.331575 5630.870237,5195.399188 5628.833537,5190.250093 5629.520155,5185.961171 5632.527431,5180.518167 5638.199660,5167.530340 5641.006830,5157.083389 5642.758043,5149.222163 5643.388702,5146.883500 5645.706354,5144.842409 5648.511772,5142.876944 5655.779840,5142.934989"/>
    <poly id="1034069165" type="landuse" color="194,194,130" fill="1" layer="-3.00" shape="5875.322259,5139.262772 5875.421238,5133.965050 5883.873960,5133.978848 5885.920729,5136.489485 5888.111855,5140.699125 5890.055625,5145.580450 5891.260340,5151.268401 5894.824203,5285.686915 5891.049798,5295.528141 5884.863284,5303.040379 5878.066088,5308.678598 5798.325611,5310.038284 5797.328408,5290.096381 5782.703387,5290.033880 5781.468433,5267.105148 5772.475014,5267.236536 5771.792411,5220.492240 5776.171545,5220.174891 5783.258408,5218.932461 5793.622007,5215.633623 5802.362486,5211.761217 5809.650296,5207.617770 5816.518811,5203.399973 5824.498234,5196.275973 5831.342763,5189.152951 5837.320136,5181.315254 5842.886447,5172.438793 5846.923551,5163.722246 5849.690587,5155.957625 5851.633318,5145.184125 5852.975179,5141.960712 5855.785191,5139.751466 5859.846792,5139.151040 5875.322259,5139.262772"/>
    <poly id="1034069165#1" type="tourism" color="207,245,201" fill="1" layer="-2.00" shape="5875.322259,5139.262772 5875.421238,5133.965050 5883.873960,5133.978848 5885.920729,5136.489485 5888.111855,5140.699125 5890.055625,5145.580450 5891.260340,5151.268401 5894.824203,5285.686915 5891.049798,5295.528141 5884.863284,5303.040379 5878.066088,5308.678598 5798.325611,5310.038284 5797.328408,5290.096381 5782.703387,5290.033880 5781.468433,5267.105148 5772.475014,5267.236536 5771.792411,5220.492240 5776.171545,5220.174891 5783.258408,5218.932461 5793.622007,5215.633623 5802.362486,5211.761217 5809.650296,5207.617770 5816.518811,5203.399973 5824.498234,5196.275973 5831.342763,5189.152951 5837.320136,5181.315254 5842.886447,5172.438793 5846.923551,5163.722246 5849.690587,5155.957625 5851.633318,5145.184125 5852.975179,5141.960712 5855.785191,5139.751466 5859.846792,5139.151040 5875.322259,5139.262772"/>
    <poly id="1034069270" type="landuse" color="194,194,130" fill="1" layer="-3.00" shape="5747.470274,5382.406601 5723.973312,5345.591519 5836.337555,5342.845109 5796.440407,5370.637690 5768.892937,5389.891241 5762.471108,5392.199354 5752.964779,5389.416386 5747.470274,5382.406601"/>
    <poly id="1034069270#1" type="tourism" color="207,245,201" fill="1" layer="-2.00" shape="5747.470274,5382.406601 5723.973312,5345.591519 5836.337555,5342.845109 5796.440407,5370.637690 5768.892937,5389.891241 5762.471108,5392.199354 5752.964779,5389.416386 5747.470274,5382.406601"/>
    <poly id="1034069905" type="landuse" color="194,194,130" fill="1" layer="-3.00" shape="5549.657557,5215.858131 5552.127422,5211.425084 5555.880790,5208.989458 5561.402878,5208.238788 5583.958446,5207.462240 5589.212901,5206.373981 5594.479152,5208.323767 5610.082596,5235.123833 5726.439984,5413.112824 5727.752315,5418.802766 5724.261431,5423.948454 5602.716095,5495.651685 5591.409481,5498.123722 5579.829509,5497.419801 5570.656431,5495.131021 5454.036480,5438.696000 5449.490948,5433.777322 5446.817922,5427.075309 5446.187541,5414.712701 5450.488219,5401.810097 5467.893461,5373.441694 5494.707315,5320.059266 5549.657557,5215.858131"/>
    <poly id="1034069905#1" type="tourism" color="207,245,201" fill="1" layer="-2.00" shape="5549.657557,5215.858131 5552.127422,5211.425084 5555.880790,5208.989458 5561.402878,5208.238788 5583.958446,5207.462240 5589.212901,5206.373981 5594.479152,5208.323767 5610.082596,5235.123833 5726.439984,5413.112824 5727.752315,5418.802766 5724.261431,5423.948454 5602.716095,5495.651685 5591.409481,5498.123722 5579.829509,5497.419801 5570.656431,5495.131021 5454.036480,5438.696000 5449.490948,5433.777322 5446.817922,5427.075309 5446.187541,5414.712701 5450.488219,5401.810097 5467.893461,5373.441694 5494.707315,5320.059266 5549.657557,5215.858131"/>
    <poly id="1034507223" type="landuse" color="194,194,130" fill="1" layer="-3.00" shape="5684.382480,5156.795402 5692.711741,5154.511759 5698.518842,5168.367992 5703.082725,5175.449063 5708.184604,5181.486919 5713.520109,5187.063488 5718.243233,5190.854713 5722.941979,5194.379398 5729.658314,5197.786539 5735.262975,5200.474449 5738.677827,5202.023863 5741.963207,5203.171731 5747.797665,5204.555676 5751.866017,5205.163819 5759.532810,5205.872421 5763.222583,5205.797194 5763.037603,5214.131135 5759.478905,5213.998157 5755.290972,5214.030822 5750.792922,5213.381393 5744.735443,5212.414586 5738.803963,5210.463395 5734.210747,5209.146978 5730.267306,5207.088781 5723.053435,5203.605829 5718.383880,5200.613862 5712.765602,5197.083098 5707.491168,5192.427887 5702.748992,5187.560876 5698.400498,5182.568173 5694.063173,5176.976985 5690.912600,5171.751649 5689.176995,5168.293380 5687.033409,5163.630104 5684.382480,5156.795402"/>