<?xml version="1.0" encoding="UTF-8"?>

<!-- generated on 2025-10-06 16:54:55 by Eclipse SUMO duarouter Version 1.24.0
<duarouterConfiguration xmlns:xsi="http://www.w3.org/2001/XMLSchema-instance" xsi:noNamespaceSchemaLocation="http://sumo.dlr.de/xsd/duarouterConfiguration.xsd">

    <input>
        <net-file value="mymap.net.xml"/>
        <route-files value="mymap.trips.xml"/>
    </input>

    <output>
        <output-file value="mymap.rou.xml"/>
    </output>

    <processing>
        <max-alternatives value="3"/>
        <randomize-flows value="true"/>
        <remove-loops value="true"/>
        <repair value="true"/>
        <routing-algorithm value="astar"/>
        <weights.random-factor value="1.5"/>
    </processing>

    <report>
        <no-warnings value="true"/>
        <ignore-errors value="true"/>
    </report>

</duarouterConfiguration>
-->

<routes xmlns:xsi="http://www.w3.org/2001/XMLSchema-instance" xsi:noNamespaceSchemaLocation="http://sumo.dlr.de/xsd/routes_file.xsd">
    <vType id="bus" length="12.00" minGap="3.50" maxSpeed="22.22" speedFactor="normc(0.85,0.10,0.20,2.00)" vClass="passenger" guiShape="bus" color="blue" lcStrategic="0.5" lcCooperative="1.5" lcSpeedGain="0.5" lcKeepRight="0.8" accel="1.2" decel="3.5" sigma="0.3"/>
    <vehicle id="bus_flow_16.0" type="bus" depart="50.83" departLane="best" departSpeed="max">
        <route edges="712992071#10 712992071#11 712992071#12 24563449#8 24563449#9 24563449#10 24563449#11 24563449#1 24563449#2 24563449#3 24563449#4 44257669#0 44257669#1 44257669#2 722082931 1181942240 709276138#1 -359757123 -1307222666#1 782774061#19 782774061#20 782774061#0 782774061#1 782774061#2 782774061#3 -80921410#2 -80921410#1 -80921410#0 24618002#5 24618002#6 24618002#7 24618002#1 -708488754#9 -708488754#8 -708488754#7 -708488754#6 -708488754#5 -708488754#4 -708488754#3 -708488754#2 -708488754#1 -708488754#0 28121435#0 28121435#1 28121442#0 28121442#1 28121442#2 28121442#3 28121442#4 28121442#5 44188368#5 44188368#6 554798488#2 570859657#0 570859657#1"/>
    </vehicle>
    <vType id="auto" length="3.00" minGap="1.20" maxSpeed="13.89" speedFactor="normc(0.90,0.20,0.20,2.00)" vClass="passenger" guiShape="delivery" color="yellow" lcStrategic="1.5" lcCooperative="0.5" lcSpeedGain="2.0" lcKeepRight="0.3" accel="1.8" decel="4.5" sigma="0.7"/>
    <vehicle id="auto_flow_0.0" type="auto" depart="55.65" departLane="best" departSpeed="max">
        <route edges="680551212#1 680551212#2 680551212#3 680551212#4 582461172#0 582461172#3 680551211 680551207 23134098#0 23134098#1 23134098#1-AddedOffRampEdge 24563431#0 24563431#1"/>
    </vehicle>
    <vType id="motorbike" length="2.00" minGap="0.50" maxSpeed="27.78" speedFactor="normc(1.20,0.30,0.20,2.00)" vClass="passenger" guiShape="motorcycle" color="red" lcStrategic="2.0" lcCooperative="0.3" lcSpeedGain="3.0" lcKeepRight="0.1" accel="3.5" decel="6.0" sigma="0.6"/>
    <vehicle id="motorbike_flow_6.0" type="motorbike" depart="71.01" departLane="best" departSpeed="max">
        <route edges="447141143#1-AddedOnRampEdge 447141143#1 48964551 1159291804 447141155#0 447141155#1 447141155#2 502579562 44188368#1 44188368#2 44188368#3 44188368#4 44188368#5 44188368#6 23134751#0 23134751#1 23134751#2 23134751#3 23134751#4 23134751#5 1064518285 710645766#0 710645766#1 24617983#0 24617983#1 24617994#0 24617994#1 24617994#2 24617994#3 24617994#4 24617994#5 27422252#2 27422252#3 27422252#4 37222924#0 37222924#1"/>
    </vehicle>
    <vType id="car" length="5.00" minGap="2.50" maxSpeed="33.33" speedFactor="normc(1.00,0.15,0.20,2.00)" vClass="passenger" guiShape="passenger" color="0,230,230" lcStrategic="1.0" lcCooperative="1.0" lcSpeedGain="1.0" lcKeepRight="0.5" accel="2.6" decel="4.5" sigma="0.5"/>
    <vehicle id="car_flow_10.0" type="car" depart="88.60" departLane="best" departSpeed="max">
        <route edges="-1307222666#0 782774061#7 782774061#8 782774061#9 782774061#10 782774061#11 782774061#12 267446576#0 267446576#1 267446576#2 447143201#1 24577101#0 24577101#1 722082948#0 722082948#1 447141145 998790362#0 998790362#1 1327208477#0 1327208477#1 24577106#0 24577106#1 24577106#2 24577106#3 24577106#4 24577106#5 24577106#6 24577106#7 998790361 447141132#0 447141132#1 447141132#2 447141132#3 447141132#4 596373329 562340239 998790359 998790356#0 998790356#1 998790356#2 998790356#3 998790356#4 998790356#5 998790356#6 998790356#7 998790356#8 998790355#1 998790354#0 998790354#1 998790354#2 998790354#3 998790354#4 998790354#5 998790354#7 998790352#0 998790352#1 998790352#3 998790352#4 998790358#0 998790358#1 998790358#2 998790358#3 998790358#4 998790358#5 998790358#6 998790358#7 998790358#9 998790358#10 998790358#11 998790358#12 998790358#14 998790358#15 998790358#16 998790358#17 998790358#18 998790358#19"/>
    </vehicle>
    <vehicle id="auto_flow_2.0" type="auto" depart="90.13" departLane="best" departSpeed="max">
        <route edges="37222901#2 37222901#3 37222901#4 37222901#5 37222901#6 37222901#7 37222901#8 37222901#9 570427350#4 683766459 28121266#0 28121266#1 28121266#2 683766458 570427350#0 28121291#0 28121291#1 28121291#2 758753890#2 758753874 760817626 760817625 563679834#0 563679834#1 708488753#0 708488753#1 708488753#2 708488753#3 711421332#1 729959834 680551210#0 680551210#1 680551210#2 28616711#0 28616711#1 23134098#0 23134098#1 23134098#1-AddedOffRampEdge 23134098#3 23134098#4 23134098#5 23134098#6 23134098#7 23134098#8 24563437#0 24563437#1 24563437#2 24563437#3 24563436#0 24563436#1 24563436#2 24563436#3 24563436#4 656933877#10 656933877#11 656933877#13 656933877#14 656933877#15 656933877#16 656933877#17"/>
    </vehicle>
    <vehicle id="car_flow_13.0" type="car" depart="97.52" departLane="best" departSpeed="max">
        <route edges="24583487#7 24583487#8 24583487#9 24583487#10 24583487#11 24583487#12 24583487#13 994825990#0 994825990#1 994825990#2 447141148 572511731 447141147#0 24583334#0 24583334#1 24583334#4 24583334#5 24583337#3 24583337#4 24583337#5 24583337#6 24583337#7 24583339#0 24583339#1 24583339#2 24583339#3 24583339#4 24583339#5 24583339#6 447141132#4 596373329 562340239 722082943#0 722082943#1 23134734#0 23134734#1 712992071#0 712992071#1 712992071#2 712992071#3"/>
    </vehicle>
    <vehicle id="motorbike_flow_6.1" type="motorbike" depart="113.60" departLane="best" departSpeed="max">
        <route edges="447141143#1-AddedOnRampEdge 447141143#1 48964551 1159291804 447141155#0 447141155#1 447141155#2 502579562 44188368#1 44188368#2 44188368#3 44188368#4 44188368#5 44188368#6 23134751#0 23134751#1 23134751#2 23134751#3 23134751#4 23134751#5 1064518285 710645766#0 710645766#1 24617983#0 24617983#1 24617994#0 24617994#1 24617994#2 24617994#3 24617994#4 24617994#5 27422252#2 27422252#3 27422252#4 37222924#0 37222924#1"/>
    </vehicle>
    <vehicle id="bus_flow_17.0" type="bus" depart="148.47" departLane="best" departSpeed="max">
        <route edges="24577367#2 24577367#4 24577367#6 24577367#7 24577367#8 1126646523 783084113#1 783084113#2 24577365#0 24577365#1 24577365#2 1187268483#1 1187268483#2 1187268483#3 1187268476#0 1187268476#1 1187268476#2 1187268476#3 1187268476#4 77349485#1"/>
    </vehicle>
    <vehicle id="motorbike_flow_7.0" type="motorbike" depart="164.59" departLane="best" departSpeed="max">
        <route edges="-712992080#2 -712992080#1 -712992080#0 995113417#0 995113417#1 446922582#7 446922582#8 446922582#9 446922582#10 446922582#11 446922582#12 581989173#0 581989173#1 581989173#2 581989173#3 581989173#4 581989173#5 581989173#6 680551206#0 680551206#2 680551212#0 680551212#1 680551212#2 680551212#3 680551212#4 296963059#0 296963059#1-AddedOnRampEdge 296963059#1 296963059#2 296963059#3 296963059#4 684972730#0 684972730#1 732001894 581989172#0 581989172#1 604050032 24577379#0 24577379#1 24577390#0 24577390#1 24577390#2 24577390#3 24577390#4 24577390#6 24577390#8 24577390#9 24577390#10"/>
    </vehicle>
    <vehicle id="motorbike_flow_5.0" type="motorbike" depart="169.75" departLane="best" departSpeed="max">
        <route edges="24577372#3 24577372#4 24577372#5 680551212#3 680551212#4 582461172#0 582461172#3 680551211 680551207 23134098#0 -537797267#3 -537797267#1 -359757123 -1307222666#1"/>
    </vehicle>
    <vehicle id="bus_flow_15.0" type="bus" depart="188.21" departLane="best" departSpeed="max">
        <route edges="995793692#4 995793692#5 995793692#6 995793692#7 563975284#0 563791811#1 563791811#2 563791811#3 563791811#4 563791811#5 563791811#6 563791811#7 563679836#0 563679836#1 563679836#2 563679836#3 563679836#4 563679836#5 563679836#6 563679836#7 563679836#8 563679836#9 563679836#10 563679836#11 563679836#12 563679836#13 563679836#14 563679836#15 1242128092#1 1242128093 116046166#0 116046166#1 116046166#2 24577121#1 24577121#2 24577121#3 24577121#4 24577121#5 116046169#0 116046169#1 116046169#2 116046169#3 116046169#4 23134098#7 23134098#8 656933873 656933872#0 656933872#1 582461171#0 582461171#2 581989173#0 581989173#1 581989173#2 581989173#3 581989173#4 581989173#5 581989173#6 44831985#0 44831985#1 44831985#2 44831985#3 44831985#4 44831985#5 1187268473#1 1187268473#2-AddedOnRampEdge 1187268473#2 1187268473#2-AddedOffRampEdge 1066621585 28121614#0 77355810#1 77355810#2"/>
    </vehicle>
    <vehicle id="motorbike_flow_7.1" type="motorbike" depart="227.52" departLane="best" departSpeed="max">
        <route edges="-712992080#2 -712992080#1 -712992080#0 995113417#0 995113417#1 446922582#7 446922582#8 446922582#9 446922582#10 446922582#11 446922582#12 581989173#0 581989173#1 581989173#2 581989173#3 581989173#4 581989173#5 581989173#6 680551206#0 680551206#2 680551212#0 680551212#1 680551212#2 680551212#3 680551212#4 296963059#0 296963059#1-AddedOnRampEdge 296963059#1 296963059#2 296963059#3 296963059#4 684972730#0 684972730#1 732001894 581989172#0 581989172#1 604050032 24577379#0 24577379#1 24577390#0 24577390#1 24577390#2 24577390#3 24577390#4 24577390#6 24577390#8 24577390#9 24577390#10"/>
    </vehicle>
    <vehicle id="bus_flow_15.1" type="bus" depart="229.61" departLane="best" departSpeed="max">
        <route edges="995793692#4 995793692#5 995793692#6 995793692#7 563975284#0 563791811#1 563791811#2 563791811#3 563791811#4 563791811#5 563791811#6 563791811#7 563679836#0 563679836#1 563679836#2 563679836#3 563679836#4 563679836#5 563679836#6 563679836#7 563679836#8 563679836#9 563679836#10 563679836#11 563679836#12 563679836#13 563679836#14 563679836#15 1242128092#1 1242128093 116046166#0 116046166#1 116046166#2 24577121#1 24577121#2 24577121#3 24577121#4 24577121#5 116046169#0 116046169#1 116046169#2 116046169#3 116046169#4 23134098#7 23134098#8 656933873 656933872#0 656933872#1 582461171#0 582461171#2 581989173#0 581989173#1 581989173#2 581989173#3 581989173#4 581989173#5 581989173#6 44831985#0 44831985#1 44831985#2 44831985#3 44831985#4 44831985#5 1187268473#1 1187268473#2-AddedOnRampEdge 1187268473#2 1187268473#2-AddedOffRampEdge 1066621585 28121614#0 77355810#1 77355810#2"/>
    </vehicle>
    <vehicle id="auto_flow_2.1" type="auto" depart="230.69" departLane="best" departSpeed="max">
        <route edges="37222901#2 37222901#3 37222901#4 37222901#5 37222901#6 37222901#7 37222901#8 37222901#9 570427350#4 683766459 28121266#0 28121266#1 28121266#2 683766458 570427350#0 28121291#0 28121291#1 28121291#2 758753890#2 758753874 760817626 760817625 563679834#0 563679834#1 708488753#0 708488753#1 708488753#2 708488753#3 711421332#1 729959834 680551210#0 680551210#1 680551210#2 28616711#0 28616711#1 23134098#0 23134098#1 23134098#1-AddedOffRampEdge 23134098#3 23134098#4 23134098#5 23134098#6 23134098#7 23134098#8 24563437#0 24563437#1 24563437#2 24563437#3 24563436#0 24563436#1 24563436#2 24563436#3 24563436#4 656933877#10 656933877#11 656933877#13 656933877#14 656933877#15 656933877#16 656933877#17"/>
    </vehicle>
    <vehicle id="bus_flow_15.2" type="bus" depart="244.16" departLane="best" departSpeed="max">
        <route edges="995793692#4 995793692#5 995793692#6 995793692#7 563791813 596373338#0 596373338#1 596373338#2 596373338#4 596373338#5 596373338#6 596373338#7 596373338#8 596373338#9 596373338#10 596373338#11 596373338#12 596373338#13 562340239 722082943#0 722082943#1 23134734#0 23134734#1 712992071#0 712992071#1 712992071#2 712992071#3 712992071#4 712992071#5 712992071#6 712992071#7 712992071#8 712992071#9 712992071#10 712992071#11 712992071#12 24563449#8 24563449#9 24563449#10 24563449#11 706970966#0 706970966#1 706970966#2 150409381#1 23134098#4 23134098#5 23134098#6 23134098#7 23134098#8 656933873 656933872#0 656933872#1 582461171#0 582461171#2 581989173#0 581989173#1 581989173#2 581989173#3 581989173#4 581989173#5 581989173#6 44831985#0 44831985#1 44831985#2 44831985#3 44831985#4 44831985#5 1187268473#1 1187268473#2-AddedOnRampEdge 1187268473#2 1187268473#2-AddedOffRampEdge 1066621585 28121614#0 77355810#1 77355810#2"/>
    </vehicle>
    <vehicle id="bus_flow_17.1" type="bus" depart="245.63" departLane="best" departSpeed="max">
        <route edges="24577367#2 24577367#4 24577367#6 24577367#7 24577367#8 1126646523 783084113#1 783084113#2 24577365#0 24577365#1 24577365#2 1187268483#1 1187268483#2 1187268483#3 1187268476#0 1187268476#1 1187268476#2 1187268476#3 1187268476#4 77349485#1"/>
    </vehicle>
    <vehicle id="auto_flow_4.0" type="auto" depart="265.78" departLane="best" departSpeed="max">
        <route edges="-1042816605#9 -1042816605#8 -1042816605#7 -1042816605#6 -1042816605#5 -1042816605#4 -1042816605#3 -1042816605#2 -1042816605#0 1042816603 24617971#0 24617971#1 150409383#0 150409383#1 150409383#2 150409382#1 570413598 1064518282 1064518285 710645766#0 710645766#1 24617983#0 24617983#1 24617994#0 24617994#1 24617994#2 24617994#3 24617994#4 24617994#5 27422252#2 27422252#3 27422252#4 37222924#0 37222924#1 37222924#2 28121266#2 683766458 570427350#0 28121291#0 28121291#1 28121291#2 758753890#2 758753874 760817626 760817625 563679834#0 563679834#1 563679834#2 563679834#3 24577389#0 24577389#1 24577389#2 24577389#3 24577389#5 24577389#6 24577389#7 24577389#8 582461174#0 582461174#1 582461174#2 296963058#0 296963058#1 296963058#2 296963058#3"/>
    </vehicle>
    <vehicle id="car_flow_12.0" type="car" depart="273.46" departLane="best" departSpeed="max">
        <route edges="24563448#0 24563448#2 24563448#3 24563448#6 24563448#7 24563448#8 24563449#4 24563449#5 24563449#6 24577095#0 24577095#1 24577095#2 24577095#4 24577095#5 24577095#6 24577095#7 23134734#3 710645770 447141133#0 447141133#1 722082944 447141132#0 447141132#1 370545701#0 370545701#1 370545701#2 24583337#9 24583337#10 24583337#11 24583337#1 24583335#0 24583335#1 24583335#2 24583335#4 24583335#5 447141147#2 24583324#0 24583324#1 590609994#0 590609994#1 717907807#0 717907807#1 717907807#2 717907807#3 717907807#4 717907807#6 24583320 570526051 447141152 570526053 447141150#0 447141150#1 447141149#1 447141149#2 665150702 554665390 24583321#0 24583321#1 24583321#2"/>
    </vehicle>
    <vehicle id="car_flow_10.1" type="car" depart="292.21" departLane="best" departSpeed="max">
        <route edges="-1307222666#0 782774061#7 782774061#8 782774061#9 782774061#10 782774061#11 782774061#12 267446576#0 267446576#1 267446576#2 447143201#1 24577101#0 24577101#1 722082948#0 722082948#1 447141145 998790362#0 998790362#1 1327208477#0 1327208477#1 24577106#0 24577106#1 24577106#2 24577106#3 24577106#4 24577106#5 24577106#6 24577106#7 998790361 447141132#0 447141132#1 447141132#2 447141132#3 447141132#4 596373329 562340239 998790359 998790356#0 998790356#1 998790356#2 998790356#3 998790356#4 998790356#5 998790356#6 998790356#7 998790356#8 998790355#1 998790354#0 998790354#1 998790354#2 998790354#3 998790354#4 998790354#5 998790354#7 998790352#0 998790352#1 998790352#3 998790352#4 998790358#0 998790358#1 998790358#2 998790358#3 998790358#4 998790358#5 998790358#6 998790358#7 998790358#9 998790358#10 998790358#11 998790358#12 998790358#14 998790358#15 998790358#16 998790358#17 998790358#18 998790358#19"/>
    </vehicle>
    <vehicle id="car_flow_13.1" type="car" depart="297.16" departLane="best" departSpeed="max">
        <route edges="24583487#7 24583487#8 24583487#9 24583487#10 24583487#11 24583487#12 24583487#13 994825990#0 994825990#1 994825990#2 447141148 572511731 447141147#0 24583334#0 24583334#1 24583334#4 24583334#5 24583337#3 24583337#4 24583337#5 24583337#6 24583337#7 24583339#0 24583339#1 24583339#2 24583339#3 24583339#4 24583339#5 24583339#6 447141132#4 596373329 562340239 722082943#0 722082943#1 23134734#0 23134734#1 712992071#0 712992071#1 712992071#2 712992071#3"/>
    </vehicle>
    <vehicle id="auto_flow_4.1" type="auto" depart="313.47" departLane="best" departSpeed="max">
        <route edges="-1042816605#9 -1042816605#8 -1042816605#7 -1042816605#6 -1042816605#5 -1042816605#4 -1042816605#3 -1042816605#2 -1042816605#0 1042816603 24617971#0 24617971#1 150409383#0 150409383#1 150409383#2 150409382#1 570413598 1064518282 1064518285 710645766#0 710645766#1 24617983#0 24617983#1 24617994#0 24617994#1 24617994#2 24617994#3 24617994#4 24617994#5 27422252#2 27422252#3 27422252#4 37222924#0 37222924#1 37222924#2 28121266#2 683766458 570427350#0 28121291#0 28121291#1 28121291#2 758753890#2 758753874 760817626 760817625 563679834#0 563679834#1 563679834#2 563679834#3 24577389#0 24577389#1 24577389#2 24577389#3 24577389#5 24577389#6 24577389#7 24577389#8 582461174#0 582461174#1 582461174#2 296963058#0 296963058#1 296963058#2 296963058#3"/>
    </vehicle>
    <vehicle id="car_flow_14.0" type="car" depart="318.15" departLane="best" departSpeed="max">
        <route edges="760817631#4 994825988 758488037 760817627 758488035 760817628 24577384#0 24577384#1 24577384#2 563679834#0 563679834#1 563679834#2 563679834#3 24577389#0 24577389#1 24577389#2 24577389#3 24577389#5 24577389#6 24577389#7 24577389#8 582461174#0 582461174#1 582461174#2 296963058#0 296963058#1 296963058#2 296963058#3 296963058#4 296963058#5 296963058#6 296963058#7 296963058#8 686696028#0 686696028#2 296963059#1-AddedOnRampEdge 296963059#1 296963059#2 296963059#3 296963059#4 1126646522#0 24577367#0"/>
    </vehicle>
    <vehicle id="motorbike_flow_5.1" type="motorbike" depart="319.61" departLane="best" departSpeed="max">
        <route edges="24577372#3 24577372#4 24577372#5 680551212#3 680551212#4 582461172#0 582461172#3 680551211 680551207 23134098#0 -537797267#3 -537797267#1 -359757123 -1307222666#1"/>
    </vehicle>
    <vehicle id="car_flow_13.2" type="car" depart="328.22" departLane="best" departSpeed="max">
        <route edges="24583487#7 24583487#8 24583487#9 24583487#10 24583487#11 24583487#12 24583487#13 994825990#0 994825990#1 994825990#2 447141148 572511731 447141147#0 24583334#0 24583334#1 24583334#4 24583334#5 24583337#3 24583337#4 24583337#5 24583337#6 24583337#7 24583339#0 24583339#1 24583339#2 24583339#3 24583339#4 24583339#5 24583339#6 447141132#4 596373329 562340239 722082943#0 722082943#1 23134734#0 23134734#1 712992071#0 712992071#1 712992071#2 712992071#3"/>
    </vehicle>
    <vehicle id="motorbike_flow_6.2" type="motorbike" depart="339.31" departLane="best" departSpeed="max">
        <route edges="447141143#1-AddedOnRampEdge 447141143#1 48964551 1159291804 447141155#0 447141155#1 447141155#2 502579562 44188368#1 44188368#2 44188368#3 44188368#4 44188368#5 44188368#6 23134751#0 23134751#1 23134751#2 23134751#3 23134751#4 23134751#5 1064518285 710645766#0 710645766#1 24617983#0 24617983#1 24617994#0 24617994#1 24617994#2 24617994#3 24617994#4 24617994#5 27422252#2 27422252#3 27422252#4 37222924#0 37222924#1"/>
    </vehicle>
    <vehicle id="auto_flow_4.2" type="auto" depart="345.67" departLane="best" departSpeed="max">
        <route edges="-1042816605#9 -1042816605#8 -1042816605#7 -1042816605#6 -1042816605#5 -1042816605#4 -1042816605#3 -1042816605#2 -1042816605#0 1042816603 24617971#0 24617971#1 150409383#0 150409383#1 150409383#2 150409382#1 570413598 1064518282 1064518285 710645766#0 710645766#1 24617983#0 24617983#1 24617994#0 24617994#1 24617994#2 24617994#3 24617994#4 24617994#5 27422252#2 27422252#3 27422252#4 37222924#0 37222924#1 37222924#2 28121266#2 683766458 570427350#0 28121291#0 28121291#1 28121291#2 758753890#2 758753874 760817626 760817625 563679834#0 563679834#1 563679834#2 563679834#3 24577389#0 24577389#1 24577389#2 24577389#3 24577389#5 24577389#6 24577389#7 24577389#8 582461174#0 582461174#1 582461174#2 296963058#0 296963058#1 296963058#2 296963058#3"/>
    </vehicle>
    <vehicle id="motorbike_flow_6.3" type="motorbike" depart="346.82" departLane="best" departSpeed="max">
        <route edges="447141143#1-AddedOnRampEdge 447141143#1 48964551 1159291804 447141155#0 447141155#1 447141155#2 502579562 44188368#1 44188368#2 44188368#3 44188368#4 44188368#5 44188368#6 23134751#0 23134751#1 23134751#2 23134751#3 23134751#4 23134751#5 1064518285 710645766#0 710645766#1 24617983#0 24617983#1 24617994#0 24617994#1 24617994#2 24617994#3 24617994#4 24617994#5 27422252#2 27422252#3 27422252#4 37222924#0 37222924#1"/>
    </vehicle>
    <vehicle id="auto_flow_4.3" type="auto" depart="351.72" departLane="best" departSpeed="max">
        <route edges="-1042816605#9 -1042816605#8 -1042816605#7 -1042816605#6 -1042816605#5 -1042816605#4 -1042816605#3 -1042816605#2 -1042816605#0 1042816603 24617971#0 24617971#1 150409383#0 150409383#1 150409383#2 150409382#1 570413598 1064518282 1064518285 710645766#0 710645766#1 24617983#0 24617983#1 24617994#0 24617994#1 24617994#2 24617994#3 24617994#4 24617994#5 27422252#2 27422252#3 27422252#4 37222924#0 37222924#1 37222924#2 28121266#2 683766458 570427350#0 28121291#0 28121291#1 28121291#2 758753890#2 758753874 760817626 760817625 563679834#0 563679834#1 563679834#2 563679834#3 24577389#0 24577389#1 24577389#2 24577389#3 24577389#5 24577389#6 24577389#7 24577389#8 582461174#0 582461174#1 582461174#2 296963058#0 296963058#1 296963058#2 296963058#3"/>
    </vehicle>
    <vehicle id="auto_flow_0.1" type="auto" depart="381.92" departLane="best" departSpeed="max">
        <route edges="680551212#1 680551212#2 680551212#3 680551212#4 582461172#0 582461172#3 680551211 680551207 23134098#0 23134098#1 23134098#1-AddedOffRampEdge 24563431#0 24563431#1"/>
    </vehicle>
    <vehicle id="motorbike_flow_8.0" type="motorbike" depart="393.07" departLane="best" departSpeed="max">
        <route edges="717907814#3 717907814#5 717907814#6 717907814#7 717907814#8 778199266#0 778199266#1 778199266#2 1064518284 447141138#0 447141138#1 611866597 24584390#1 24584389#0 24584389#1 24584389#2 24584389#3 782774053 722082950 570413589#0 570413589#1 570413589#2 447141139 24584380#0 24584380#1 24584380#2 24584380#3 24584380#4 24584380#5 24584380#6 24584380#7 24584380#8 24584380#9 24584379 1278775919 24583771#1 24583771#2 24583771#3 24583773 447141155#0 447141155#1 447141155#2"/>
    </vehicle>
    <vehicle id="motorbike_flow_6.4" type="motorbike" depart="394.79" departLane="best" departSpeed="max">
        <route edges="447141143#1-AddedOnRampEdge 447141143#1 48964551 1159291804 447141155#0 447141155#1 447141155#2 502579562 44188368#1 44188368#2 44188368#3 44188368#4 44188368#5 44188368#6 23134751#0 23134751#1 23134751#2 23134751#3 23134751#4 23134751#5 1064518285 710645766#0 710645766#1 24617983#0 24617983#1 24617994#0 24617994#1 24617994#2 24617994#3 24617994#4 24617994#5 27422252#2 27422252#3 27422252#4 37222924#0 37222924#1"/>
    </vehicle>
    <vehicle id="car_flow_12.1" type="car" depart="395.23" departLane="best" departSpeed="max">
        <route edges="24563448#0 24563448#2 24563448#3 24563448#6 24563448#7 24563448#8 24563449#4 24563449#5 24563449#6 24577095#0 24577095#1 24577095#2 24577095#4 24577095#5 24577095#6 24577095#7 23134734#3 710645770 447141133#0 447141133#1 722082944 447141132#0 447141132#1 370545701#0 370545701#1 370545701#2 24583337#9 24583337#10 24583337#11 24583337#1 24583335#0 24583335#1 24583335#2 24583335#4 24583335#5 447141147#2 24583324#0 24583324#1 590609994#0 590609994#1 717907807#0 717907807#1 717907807#2 717907807#3 717907807#4 717907807#6 24583320 570526051 447141152 570526053 447141150#0 447141150#1 447141149#1 447141149#2 665150702 554665390 24583321#0 24583321#1 24583321#2"/>
    </vehicle>
    <vehicle id="car_flow_12.2" type="car" depart="400.47" departLane="best" departSpeed="max">
        <route edges="24563448#0 24563448#2 24563448#3 24563448#6 24563448#7 24563448#8 24563449#4 24563449#5 24563449#6 24577095#0 24577095#1 24577095#2 24577095#4 24577095#5 24577095#6 24577095#7 23134734#3 710645770 447141133#0 447141133#1 722082944 447141132#0 447141132#1 370545701#0 370545701#1 370545701#2 24583337#9 24583337#10 24583337#11 24583337#1 24583335#0 24583335#1 24583335#2 24583335#4 24583335#5 447141147#2 24583324#0 24583324#1 590609994#0 590609994#1 717907807#0 717907807#1 717907807#2 717907807#3 717907807#4 717907807#6 24583320 570526051 447141152 570526053 447141150#0 447141150#1 447141149#1 447141149#2 665150702 554665390 24583321#0 24583321#1 24583321#2"/>
    </vehicle>
    <vehicle id="auto_flow_0.2" type="auto" depart="401.49" departLane="best" departSpeed="max">
        <route edges="680551212#1 680551212#2 680551212#3 680551212#4 582461172#0 582461172#3 680551211 680551207 23134098#0 23134098#1 23134098#1-AddedOffRampEdge 24563431#0 24563431#1"/>
    </vehicle>
    <vehicle id="motorbike_flow_5.2" type="motorbike" depart="417.29" departLane="best" departSpeed="max">
        <route edges="24577372#3 24577372#4 24577372#5 680551212#3 680551212#4 582461172#0 582461172#3 680551211 680551207 23134098#0 -537797267#3 -537797267#1 -359757123 -1307222666#1"/>
    </vehicle>
    <vehicle id="motorbike_flow_6.5" type="motorbike" depart="421.95" departLane="best" departSpeed="max">
        <route edges="447141143#1-AddedOnRampEdge 447141143#1 48964551 1159291804 447141155#0 447141155#1 447141155#2 502579562 44188368#1 44188368#2 44188368#3 44188368#4 44188368#5 44188368#6 23134751#0 23134751#1 23134751#2 23134751#3 23134751#4 23134751#5 1064518285 710645766#0 710645766#1 24617983#0 24617983#1 24617994#0 24617994#1 24617994#2 24617994#3 24617994#4 24617994#5 27422252#2 27422252#3 27422252#4 37222924#0 37222924#1"/>
    </vehicle>
    <vehicle id="motorbike_flow_9.0" type="motorbike" depart="422.27" departLane="best" departSpeed="max">
        <route edges="1187268470#1 1187268470#2 -112102196#6 -112102196#5 -112102196#4 -112102196#3 -112102196#2 112102234 1187268468#3 1187268468#4 77349485#1 77349485#2 77349485#3 77349485#4 77349485#5 77349485#6 680551212#0 680551212#1 680551212#2 680551212#3 680551212#4 582461172#0 582461172#3 680551211 24563435#0 24563435#1 24563435#2 711421329 729959836 758488036 711421332#0 711421332#1 711421327#0 711421327#1 760817628 24577384#0 24577384#1 24577384#2"/>
    </vehicle>
    <vehicle id="car_flow_11.0" type="car" depart="458.47" departLane="best" departSpeed="max">
        <route edges="37222895#1 37222895#2 37222895#3 37222895#4 37222895#5 37222895#6 27422252#6 27422252#1 27422252#2 27422252#3 27422252#4 37222924#0 37222924#1 37222924#2 28121266#2 683766458 570427350#0 28121291#0 28121291#1 28121291#2 758753890#2 758753874 760817626 760817625 563679834#0 563679834#1 563679834#2 563679834#3 24577389#0 24577389#1 24577389#2 24577389#3 24577389#5 24577389#6 24577389#7 24577389#8 582461174#0 582461174#1 582461174#2 296963058#0 296963058#1 296963058#2 296963058#3"/>
    </vehicle>
    <vehicle id="car_flow_10.2" type="car" depart="462.52" departLane="best" departSpeed="max">
        <route edges="-1307222666#0 782774061#7 782774061#8 782774061#9 782774061#10 782774061#11 782774061#12 267446576#0 267446576#1 267446576#2 447143201#1 24577101#0 24577101#1 722082948#0 722082948#1 447141145 998790362#0 998790362#1 1327208477#0 1327208477#1 24577106#0 24577106#1 24577106#2 24577106#3 24577106#4 24577106#5 24577106#6 24577106#7 998790361 447141132#0 447141132#1 447141132#2 447141132#3 447141132#4 596373329 562340239 998790359 998790356#0 998790356#1 998790356#2 998790356#3 998790356#4 998790356#5 998790356#6 998790356#7 998790356#8 998790355#1 998790354#0 998790354#1 998790354#2 998790354#3 998790354#4 998790354#5 998790354#7 998790352#0 998790352#1 998790352#3 998790352#4 998790358#0 998790358#1 998790358#2 998790358#3 998790358#4 998790358#5 998790358#6 998790358#7 998790358#9 998790358#10 998790358#11 998790358#12 998790358#14 998790358#15 998790358#16 998790358#17 998790358#18 998790358#19"/>
    </vehicle>
    <vehicle id="motorbike_flow_7.2" type="motorbike" depart="472.84" departLane="best" departSpeed="max">
        <route edges="-712992080#2 -712992080#1 -712992080#0 995113417#0 995113417#1 446922582#7 446922582#8 446922582#9 446922582#10 446922582#11 446922582#12 581989173#0 581989173#1 581989173#2 581989173#3 581989173#4 581989173#5 581989173#6 680551206#0 680551206#2 680551212#0 680551212#1 680551212#2 680551212#3 680551212#4 296963059#0 296963059#1-AddedOnRampEdge 296963059#1 296963059#2 296963059#3 296963059#4 684972730#0 684972730#1 732001894 581989172#0 581989172#1 604050032 24577379#0 24577379#1 24577390#0 24577390#1 24577390#2 24577390#3 24577390#4 24577390#6 24577390#8 24577390#9 24577390#10"/>
    </vehicle>
    <vehicle id="auto_flow_0.3" type="auto" depart="476.94" departLane="best" departSpeed="max">
        <route edges="680551212#1 680551212#2 680551212#3 680551212#4 582461172#0 582461172#3 680551211 680551207 23134098#0 23134098#1 23134098#1-AddedOffRampEdge 24563431#0 24563431#1"/>
    </vehicle>
    <vehicle id="motorbike_flow_7.3" type="motorbike" depart="483.93" departLane="best" departSpeed="max">