<routes xmlns:xsi="http://www.w3.org/2001/XMLSchema-instance" xsi:noNamespaceSchemaLocation="http://sumo.dlr.de/xsd/routes_file.xsd">
    <vType id="auto" accel="1.8" decel="4.5" sigma="0.7" length="3.0" minGap="1.2" 
           maxSpeed="13.89" color="1,1,0" vClass="passenger" guiShape="delivery" 
           speedFactor="0.95" speedDev="0.25"/>
    
    <vType id="motorbike" accel="4.0" decel="7.0" sigma="0.8" length="2.0" minGap="0.5" 
           maxSpeed="27.78" color="1,0,0" vClass="passenger" guiShape="motorcycle"
           speedFactor="1.3" speedDev="0.4"/>
    
    <vType id="car" accel="2.6" decel="4.5" sigma="0.5" length="5.0" minGap="2.5" 
           maxSpeed="33.33" color="0.9,0.9,0.9" vClass="passenger" guiShape="passenger"
           speedFactor="1.05" speedDev="0.2"/>
    
    <vType id="bus" accel="1.2" decel="3.5" sigma="0.3" length="12.0" minGap="3.5" 
           maxSpeed="22.22" color="0,0,1" vClass="passenger" guiShape="bus"
           speedFactor="0.9" speedDev="0.1"/>
</routes>